
OS:Version,
  {827b992c-5581-4a23-84af-b3a97e1a329d}, !- Handle
  3.1.0;                                  !- Version Identifier

OS:Site,
  {53eae924-2841-4f4e-ab70-8fb57dbdb21f}, !- Handle
  BROOMFIELD-JEFFCO,                      !- Name
  39.91,                                  !- Latitude {deg}
  -105.12,                                !- Longitude {deg}
  -7,                                     !- Time Zone {hr}
  1728,                                   !- Elevation {m}
  ;                                       !- Terrain

OS:YearDescription,
  {297755f5-9987-4a0e-ac60-5f6838374426}, !- Handle
  ,                                       !- Calendar Year
  Sunday,                                 !- Day of Week for Start Day
  ;                                       !- Is Leap Year

OS:ClimateZones,
  {6b2858df-f674-4785-a6e3-d6b3134ffaa2}, !- Handle
  ,                                       !- Climate Zone Institution Name 1
  ,                                       !- Climate Zone Document Name 1
  ,                                       !- Climate Zone Document Year 1
  5B,                                     !- Climate Zone Value 1
  CEC,                                    !- Climate Zone Institution Name 2
  California Climate Zone Descriptions,   !- Climate Zone Document Name 2
  1995,                                   !- Climate Zone Document Year 2
  ;                                       !- Climate Zone Value 2

OS:Building,
  {3ffd8c00-390f-41ae-b838-60c32a5f6870}, !- Handle
  Coolbaugh Hall,                         !- Name
  ,                                       !- Building Sector Type
  ,                                       !- North Axis {deg}
  ,                                       !- Nominal Floor to Floor Height {m}
  {e02e52ed-11c3-40e7-b6ac-87b08236a4b2}, !- Space Type Name
  ,                                       !- Default Construction Set Name
  ,                                       !- Default Schedule Set Name
  ,                                       !- Standards Number of Stories
  ,                                       !- Standards Number of Above Ground Stories
  ,                                       !- Standards Template
  SecondarySchool;                        !- Standards Building Type

OS:Facility,
  {c71f38f6-d82b-4cde-b151-7906d7dc1ee9}; !- Handle

OS:SimulationControl,
  {2aa16693-6564-49fe-aa37-61d445ea13ae}, !- Handle
  ,                                       !- Do Zone Sizing Calculation
  ,                                       !- Do System Sizing Calculation
  No,                                     !- Do Plant Sizing Calculation
  No,                                     !- Run Simulation for Sizing Periods
  Yes;                                    !- Run Simulation for Weather File Run Periods

OS:Sizing:Parameters,
  {b583657a-ecc9-4c19-863d-dcfea1a5701d}, !- Handle
  1.25,                                   !- Heating Sizing Factor
  1.15;                                   !- Cooling Sizing Factor

OS:Timestep,
  {678f6d0b-d830-456a-9f84-83ac07f8ed6e}, !- Handle
  12;                                     !- Number of Timesteps per Hour

OS:ShadowCalculation,
  {aac9266d-8f74-4589-bf80-9c4a1bcd32ac}, !- Handle
  PolygonClipping,                        !- Shading Calculation Method
  ,                                       !- Shading Calculation Update Frequency Method
  20,                                     !- Shading Calculation Update Frequency
  15000,                                  !- Maximum Figures in Shadow Overlap Calculations
  ,                                       !- Polygon Clipping Algorithm
  512,                                    !- Pixel Counting Resolution
  ,                                       !- Sky Diffuse Modeling Algorithm
  No,                                     !- Output External Shading Calculation Results
  No,                                     !- Disable Self-Shading Within Shading Zone Groups
  No;                                     !- Disable Self-Shading From Shading Zone Groups to Other Zones

OS:HeatBalanceAlgorithm,
  {2f22cdb8-c9ac-4453-997b-70770926ab82}, !- Handle
  ConductionTransferFunction,             !- Algorithm
  200;                                    !- Surface Temperature Upper Limit {C}

OS:RunPeriod,
  {4faa103c-d94e-412c-8865-4e8513451b29}, !- Handle
  Run Period 1,                           !- Name
  1,                                      !- Begin Month
  1,                                      !- Begin Day of Month
  12,                                     !- End Month
  31,                                     !- End Day of Month
  ,                                       !- Use Weather File Holidays and Special Days
  ,                                       !- Use Weather File Daylight Saving Period
  ,                                       !- Apply Weekend Holiday Rule
  ,                                       !- Use Weather File Rain Indicators
  ,                                       !- Use Weather File Snow Indicators
  ;                                       !- Number of Times Runperiod to be Repeated

OS:LifeCycleCost:Parameters,
  {b220719b-4b65-401d-ab9e-b6980f2c840e}, !- Handle
  FEMP,                                   !- Analysis Type
  ,                                       !- Discounting Convention
  ,                                       !- Inflation Approach
  ,                                       !- Real Discount Rate
  ,                                       !- Nominal Discount Rate
  ,                                       !- Inflation
  ,                                       !- Base Date Month
  ,                                       !- Base Date Year
  ,                                       !- Service Date Month
  ,                                       !- Service Date Year
  ,                                       !- Length of Study Period in Years
  ,                                       !- Tax Rate
  ,                                       !- Depreciation Method
  Yes;                                    !- Use NIST Fuel Escalation Rates

OS:DefaultConstructionSet,
  {b622a8d6-2d38-4693-833f-b1d34b56f44b}, !- Handle
  SecSchl - ASHRAE 169-2006-5B,           !- Name
  {368b03fb-7fd3-4577-a50e-0b0bf1948ded}, !- Default Exterior Surface Constructions Name
  {baad4d80-753f-4a3d-9556-0ff7b4194b45}, !- Default Interior Surface Constructions Name
  {d9b0e312-6736-4d6e-9414-eeb7b258eec8}, !- Default Ground Contact Surface Constructions Name
  {b7f5fb71-56b4-47e4-b37a-b09d2e619cd8}, !- Default Exterior SubSurface Constructions Name
  {cce8c5ac-99c0-412d-b1ef-bb2b24838827}, !- Default Interior SubSurface Constructions Name
  {cd917106-0a45-4e19-8ad1-6780e0868cac}, !- Interior Partition Construction Name
  ,                                       !- Space Shading Construction Name
  ,                                       !- Building Shading Construction Name
  ,                                       !- Site Shading Construction Name
  ;                                       !- Adiabatic Surface Construction Name

OS:Construction,
  {cd917106-0a45-4e19-8ad1-6780e0868cac}, !- Handle
  Typical Interior Partition,             !- Name
  {564a27b8-e719-4cf4-87b1-3e1bc6a55ba9}, !- Surface Rendering Name
  {e4ee174f-5ab4-46ca-bd69-716fd16d4c96}; !- Layer 1

OS:StandardsInformation:Construction,
  {8903f2bb-c325-4de2-8679-20fb269ab58c}, !- Handle
  {cd917106-0a45-4e19-8ad1-6780e0868cac}, !- Construction Name
  InteriorPartition,                      !- Intended Surface Type
  ;                                       !- Standards Construction Type

OS:Construction,
  {74e95c9f-a4d5-4d69-a9b7-51d1e6365b93}, !- Handle
  Typical Insulated Exterior Mass Floor,  !- Name
  {38311cd0-48c6-4416-8e97-d354a7c4d454}, !- Surface Rendering Name
  {1e6f283a-7e3d-4aab-a617-183605b86e5f}, !- Layer 1
  {ceef3806-6d10-418e-a68e-c9120e758137}; !- Layer 2

OS:StandardsInformation:Construction,
  {1e5c950f-110e-471f-9b2c-485684ceb841}, !- Handle
  {74e95c9f-a4d5-4d69-a9b7-51d1e6365b93}, !- Construction Name
  ExteriorFloor,                          !- Intended Surface Type
  Mass;                                   !- Standards Construction Type

OS:Construction,
  {a4338807-d867-446d-9b0f-ce0b0e677adb}, !- Handle
  Typical Insulated Steel Framed Exterior Wall R-6.21 12, !- Name
  {40cf0344-1ed4-4130-bb48-00f264cee4bf}, !- Surface Rendering Name
  {20ae9753-385d-4337-b56d-2ceecd63cf9f}, !- Layer 1
  {b6fcf076-98c6-45ee-94a9-2267af1dfb24}, !- Layer 2
  {961c25b9-68be-4257-865b-b83885bbe80a}, !- Layer 3
  {b6fcf076-98c6-45ee-94a9-2267af1dfb24}; !- Layer 4

OS:StandardsInformation:Construction,
  {070cbbfa-1eaa-4283-9655-9cad30a5de3b}, !- Handle
  {a4338807-d867-446d-9b0f-ce0b0e677adb}, !- Construction Name
  ExteriorWall,                           !- Intended Surface Type
  SteelFramed;                            !- Standards Construction Type

OS:Construction,
  {29e493fa-77a2-4593-84dd-e3742d9ff51d}, !- Handle
  Typical IEAD Roof,                      !- Name
  {aa6f21e7-93b5-4eb1-9958-95b16b6a94f0}, !- Surface Rendering Name
  {3c223628-08ab-459f-aa52-08fe7622b918}, !- Layer 1
  {b2f4e768-24dd-4bc6-bf21-f7061a9589db}, !- Layer 2
  {b701299b-43be-4ade-8b23-3805a3c9b939}; !- Layer 3

OS:StandardsInformation:Construction,
  {3730cc7d-32c5-4966-abee-fa63e9faf10d}, !- Handle
  {29e493fa-77a2-4593-84dd-e3742d9ff51d}, !- Construction Name
  ExteriorRoof,                           !- Intended Surface Type
  IEAD;                                   !- Standards Construction Type

OS:Construction,
  {326d3251-a83c-4a94-9a1a-e1ed1b33afd5}, !- Handle
  Typical Interior Floor,                 !- Name
  {7e5ef0a7-88ef-461f-912c-5e5f049690a1}, !- Surface Rendering Name
  {883d97dd-226a-47c6-b477-d1fad81496b7}, !- Layer 1
  {001af12c-36d2-4a7d-8ed5-ade296da7f08}; !- Layer 2

OS:StandardsInformation:Construction,
  {a67f24a7-a54b-4c24-873a-8bd559704a25}, !- Handle
  {326d3251-a83c-4a94-9a1a-e1ed1b33afd5}, !- Construction Name
  InteriorFloor,                          !- Intended Surface Type
  ;                                       !- Standards Construction Type

OS:Construction,
  {9f77b080-727d-4d39-9f80-644704098749}, !- Handle
  Typical Interior Wall,                  !- Name
  {f212c72d-8b40-4d82-a488-9a7e37ec31e3}, !- Surface Rendering Name
  {1c1fffd9-2d3f-4bd6-a6c3-4401f7a29bc7}, !- Layer 1
  {1c1fffd9-2d3f-4bd6-a6c3-4401f7a29bc7}; !- Layer 2

OS:StandardsInformation:Construction,
  {02d53bc5-6484-4486-9d8c-3ca34e57fdd8}, !- Handle
  {9f77b080-727d-4d39-9f80-644704098749}, !- Construction Name
  InteriorWall,                           !- Intended Surface Type
  ;                                       !- Standards Construction Type

OS:Construction,
  {ef8f9d8d-3e66-4dd4-a3d5-8391e09e08ba}, !- Handle
  Typical Interior Ceiling,               !- Name
  {35497584-84b8-490b-b9e2-511d358b6175}, !- Surface Rendering Name
  {001af12c-36d2-4a7d-8ed5-ade296da7f08}, !- Layer 1
  {883d97dd-226a-47c6-b477-d1fad81496b7}; !- Layer 2

OS:StandardsInformation:Construction,
  {b15f8d00-98cf-41e5-aa2e-cb08ae469065}, !- Handle
  {ef8f9d8d-3e66-4dd4-a3d5-8391e09e08ba}, !- Construction Name
  InteriorCeiling,                        !- Intended Surface Type
  ;                                       !- Standards Construction Type

OS:Construction,
  {d79b0825-a4d3-4003-8e41-b8817b43e564}, !- Handle
  ext-slab-mass,                          !- Name
  {81027673-6e2e-4fb0-8c98-b5d0eb3ab898}, !- Surface Rendering Name
  {9fba017d-a420-49c2-b751-67330676482a}, !- Layer 1
  {001af12c-36d2-4a7d-8ed5-ade296da7f08}; !- Layer 2

OS:StandardsInformation:Construction,
  {c8a15404-4d1a-4c85-9a99-d666c659337e}, !- Handle
  {d79b0825-a4d3-4003-8e41-b8817b43e564}, !- Construction Name
  GroundContactFloor,                     !- Intended Surface Type
  Mass;                                   !- Standards Construction Type

OS:Construction,
  {3d06d9da-ec68-4236-b498-546ee527b949}, !- Handle
  Typical Insulated Basement Mass Wall,   !- Name
  {6ddcfdc2-319a-4be9-b11f-c96a6d4654ea}, !- Surface Rendering Name
  {e7708b9b-4f67-49f1-a720-4587eeb1abe3}; !- Layer 1

OS:StandardsInformation:Construction,
  {9762fda4-086b-4a23-9b3a-ce46568d2358}, !- Handle
  {3d06d9da-ec68-4236-b498-546ee527b949}, !- Construction Name
  GroundContactWall,                      !- Intended Surface Type
  Mass;                                   !- Standards Construction Type

OS:Construction,
  {481546cc-2d45-4ec2-b10b-d5f4900ed50c}, !- Handle
  U 0.62 SHGC 0.41 Simple Glazing Window U-0.62 SHGC 0.41 236, !- Name
  {e3a4d59e-6c3e-458f-99b9-5798cff67d1e}, !- Surface Rendering Name
  {847d00e6-d9be-4411-a182-bf473375efdc}; !- Layer 1

OS:StandardsInformation:Construction,
  {801fda16-25d4-4fe5-a07e-aab3e5704aec}, !- Handle
  {481546cc-2d45-4ec2-b10b-d5f4900ed50c}, !- Construction Name
  ExteriorWindow,                         !- Intended Surface Type
  Metal framing (all other);              !- Standards Construction Type

OS:Construction,
  {4d3327c9-5de0-4122-b277-c48e71f08b55}, !- Handle
  U 0.62 SHGC 0.41 Simple Glazing Window U-0.62 SHGC 0.41 237, !- Name
  {26173636-da6a-46ec-86cc-2177dfe3ab2f}, !- Surface Rendering Name
  {fa60da51-f915-4d2d-aee4-f96d9b0971ae}; !- Layer 1

OS:StandardsInformation:Construction,
  {3b4f93af-ce3c-4227-b280-478b22f74fda}, !- Handle
  {4d3327c9-5de0-4122-b277-c48e71f08b55}, !- Construction Name
  ExteriorWindow,                         !- Intended Surface Type
  Metal framing (all other);              !- Standards Construction Type

OS:Construction,
  {b29ecc42-aba2-43f4-a8c6-643fa8022c84}, !- Handle
  Typical Insulated Metal Door,           !- Name
  {d42d716d-d692-49bf-ad1c-eae77a56c8a9}, !- Surface Rendering Name
  {50082c14-b333-435a-b2fe-8fd17e1ec139}, !- Layer 1
  {c2888bbd-8388-4512-b20e-f3ecbeac9c8f}; !- Layer 2

OS:StandardsInformation:Construction,
  {b9640edd-0c66-4832-b2b9-3f6e347e3af0}, !- Handle
  {b29ecc42-aba2-43f4-a8c6-643fa8022c84}, !- Construction Name
  ExteriorDoor,                           !- Intended Surface Type
  ;                                       !- Standards Construction Type

OS:Construction,
  {1dac8968-b5e2-4b79-9b9a-f7e55352800a}, !- Handle
  Typical Overhead Door,                  !- Name
  {4ab0aac6-6d31-4d11-9dff-14457e1a5592}, !- Surface Rendering Name
  {c2888bbd-8388-4512-b20e-f3ecbeac9c8f}; !- Layer 1

OS:StandardsInformation:Construction,
  {add13469-c8d3-4c29-a7eb-0225a3392760}, !- Handle
  {1dac8968-b5e2-4b79-9b9a-f7e55352800a}, !- Construction Name
  ExteriorDoor,                           !- Intended Surface Type
  RollUp;                                 !- Standards Construction Type

OS:Construction,
  {8760765f-cce2-4b15-937f-efaba55206e4}, !- Handle
  Typical Interior Window,                !- Name
  {61a56a27-642f-458b-8551-84e097368ec0}, !- Surface Rendering Name
  {b69f805a-ebdb-4820-9046-32d009c16bb5}; !- Layer 1

OS:StandardsInformation:Construction,
  {8b3ad7e8-d1e4-47f5-ac26-71f160df4c18}, !- Handle
  {8760765f-cce2-4b15-937f-efaba55206e4}, !- Construction Name
  InteriorWindow,                         !- Intended Surface Type
  ;                                       !- Standards Construction Type

OS:Construction,
  {2c140e74-c783-4e3a-a6ee-80a5ea6a3dff}, !- Handle
  Typical Interior Door,                  !- Name
  {15f30d4f-361c-4159-bdcc-924dc4de271f}, !- Surface Rendering Name
  {e4ee174f-5ab4-46ca-bd69-716fd16d4c96}; !- Layer 1

OS:StandardsInformation:Construction,
  {601a1b1c-7561-4e9f-89da-e8653fea9f9b}, !- Handle
  {2c140e74-c783-4e3a-a6ee-80a5ea6a3dff}, !- Construction Name
  InteriorDoor,                           !- Intended Surface Type
  ;                                       !- Standards Construction Type

OS:Material,
  {e4ee174f-5ab4-46ca-bd69-716fd16d4c96}, !- Handle
  G05 25mm wood,                          !- Name
  MediumSmooth,                           !- Roughness
  0.0254,                                 !- Thickness {m}
  0.15,                                   !- Conductivity {W/m-K}
  608,                                    !- Density {kg/m3}
  1630,                                   !- Specific Heat {J/kg-K}
  0.9,                                    !- Thermal Absorptance
  0.5,                                    !- Solar Absorptance
  0.5;                                    !- Visible Absorptance

OS:StandardsInformation:Material,
  {c34ddbf6-cf05-4b33-bf51-fbdd4958d706}, !- Handle
  {e4ee174f-5ab4-46ca-bd69-716fd16d4c96}; !- Material Name

OS:Material,
  {1e6f283a-7e3d-4aab-a617-183605b86e5f}, !- Handle
  4 in. Normalweight Concrete Floor,      !- Name
  MediumRough,                            !- Roughness
  0.1016,                                 !- Thickness {m}
  2.31,                                   !- Conductivity {W/m-K}
  2321.99999999999,                       !- Density {kg/m3}
  831.999999999997,                       !- Specific Heat {J/kg-K}
  0.9,                                    !- Thermal Absorptance
  0.7,                                    !- Solar Absorptance
  0.7;                                    !- Visible Absorptance

OS:Material:NoMass,
  {ceef3806-6d10-418e-a68e-c9120e758137}, !- Handle
  Typical Carpet Pad,                     !- Name
  Smooth,                                 !- Roughness
  0.216479986995276,                      !- Thermal Resistance {m2-K/W}
  0.9,                                    !- Thermal Absorptance
  0.7,                                    !- Solar Absorptance
  0.8;                                    !- Visible Absorptance

OS:Material,
  {20ae9753-385d-4337-b56d-2ceecd63cf9f}, !- Handle
  25mm Stucco,                            !- Name
  Smooth,                                 !- Roughness
  0.0254,                                 !- Thickness {m}
  0.719999999999999,                      !- Conductivity {W/m-K}
  1855.99999999999,                       !- Density {kg/m3}
  839.999999999997,                       !- Specific Heat {J/kg-K}
  0.9,                                    !- Thermal Absorptance
  0.7,                                    !- Solar Absorptance
  0.7;                                    !- Visible Absorptance

OS:Material,
  {b6fcf076-98c6-45ee-94a9-2267af1dfb24}, !- Handle
  5/8 in. Gypsum Board,                   !- Name
  MediumSmooth,                           !- Roughness
  0.0159,                                 !- Thickness {m}
  0.159999999999999,                      !- Conductivity {W/m-K}
  799.999999999999,                       !- Density {kg/m3}
  1090,                                   !- Specific Heat {J/kg-K}
  0.9,                                    !- Thermal Absorptance
  0.7,                                    !- Solar Absorptance
  0.7;                                    !- Visible Absorptance

OS:Material:NoMass,
  {961c25b9-68be-4257-865b-b83885bbe80a}, !- Handle
  Typical Insulation R-4.03 12,           !- Name
  Smooth,                                 !- Roughness
  0.710130638653167,                      !- Thermal Resistance {m2-K/W}
  0.9,                                    !- Thermal Absorptance
  0.7,                                    !- Solar Absorptance
  0.7;                                    !- Visible Absorptance

OS:Material,
  {3c223628-08ab-459f-aa52-08fe7622b918}, !- Handle
  Roof Membrane,                          !- Name
  VeryRough,                              !- Roughness
  0.0095,                                 !- Thickness {m}
  0.16,                                   !- Conductivity {W/m-K}
  1121.29,                                !- Density {kg/m3}
  1460,                                   !- Specific Heat {J/kg-K}
  0.9,                                    !- Thermal Absorptance
  0.7,                                    !- Solar Absorptance
  0.7;                                    !- Visible Absorptance

OS:StandardsInformation:Material,
  {74612a75-fe14-4acb-9c6f-26f3c76fdd05}, !- Handle
  {3c223628-08ab-459f-aa52-08fe7622b918}; !- Material Name

OS:Material:NoMass,
  {b2f4e768-24dd-4bc6-bf21-f7061a9589db}, !- Handle
  Typical Insulation R-1.96 1,            !- Name
  Smooth,                                 !- Roughness
  0.34506034517429,                       !- Thermal Resistance {m2-K/W}
  0.9,                                    !- Thermal Absorptance
  0.7,                                    !- Solar Absorptance
  0.7;                                    !- Visible Absorptance

OS:Material,
  {b701299b-43be-4ade-8b23-3805a3c9b939}, !- Handle
  Metal Roof Surface,                     !- Name
  Smooth,                                 !- Roughness
  0.000799999999999998,                   !- Thickness {m}
  45.2799999999999,                       !- Conductivity {W/m-K}
  7823.99999999999,                       !- Density {kg/m3}
  499.999999999996,                       !- Specific Heat {J/kg-K}
  0.9,                                    !- Thermal Absorptance
  0.7,                                    !- Solar Absorptance
  0.7;                                    !- Visible Absorptance

OS:Material,
  {883d97dd-226a-47c6-b477-d1fad81496b7}, !- Handle
  100mm Normalweight concrete floor,      !- Name
  MediumRough,                            !- Roughness
  0.1016,                                 !- Thickness {m}
  2.31044676686054,                       !- Conductivity {W/m-K}
  2322.00146636525,                       !- Density {kg/m3}
  832.5567858096,                         !- Specific Heat {J/kg-K}
  ,                                       !- Thermal Absorptance
  0,                                      !- Solar Absorptance
  0;                                      !- Visible Absorptance

OS:Material:NoMass,
  {001af12c-36d2-4a7d-8ed5-ade296da7f08}, !- Handle
  CP02 CARPET PAD 1,                      !- Name
  Smooth,                                 !- Roughness
  0.216479986995276,                      !- Thermal Resistance {m2-K/W}
  0.9,                                    !- Thermal Absorptance
  0.7,                                    !- Solar Absorptance
  0.8;                                    !- Visible Absorptance

OS:Material,
  {1c1fffd9-2d3f-4bd6-a6c3-4401f7a29bc7}, !- Handle
  G01 13mm gypsum board,                  !- Name
  Smooth,                                 !- Roughness
  0.0127,                                 !- Thickness {m}
  0.160030944416258,                      !- Conductivity {W/m-K}
  800.000505207667,                       !- Density {kg/m3}
  1090.7294438736,                        !- Specific Heat {J/kg-K}
  0.9,                                    !- Thermal Absorptance
  0.7,                                    !- Solar Absorptance
  0.5;                                    !- Visible Absorptance

OS:Material,
  {9fba017d-a420-49c2-b751-67330676482a}, !- Handle
  HW CONCRETE,                            !- Name
  Rough,                                  !- Roughness
  0.1016,                                 !- Thickness {m}
  1.31125355293807,                       !- Conductivity {W/m-K}
  2240.00141458147,                       !- Density {kg/m3}
  837.36,                                 !- Specific Heat {J/kg-K}
  0.9,                                    !- Thermal Absorptance
  0.7,                                    !- Solar Absorptance
  0.7;                                    !- Visible Absorptance

OS:Material,
  {e7708b9b-4f67-49f1-a720-4587eeb1abe3}, !- Handle
  8 in. Concrete Block Basement Wall,     !- Name
  MediumRough,                            !- Roughness
  0.2032,                                 !- Thickness {m}
  1.326,                                  !- Conductivity {W/m-K}
  1841.99999999999,                       !- Density {kg/m3}
  911.999999999999,                       !- Specific Heat {J/kg-K}
  0.9,                                    !- Thermal Absorptance
  0.7,                                    !- Solar Absorptance
  0.7;                                    !- Visible Absorptance

OS:WindowMaterial:SimpleGlazingSystem,
  {847d00e6-d9be-4411-a182-bf473375efdc}, !- Handle
  U 0.62 SHGC 0.41 Simple Glazing U-1.31 SHGC 0.41 236, !- Name
  3.52052327149036,                       !- U-Factor {W/m2-K}
  0.41,                                   !- Solar Heat Gain Coefficient
  0.32;                                   !- Visible Transmittance

OS:WindowMaterial:SimpleGlazingSystem,
  {fa60da51-f915-4d2d-aee4-f96d9b0971ae}, !- Handle
  U 0.62 SHGC 0.41 Simple Glazing U-1.31 SHGC 0.41 237, !- Name
  3.52052327149036,                       !- U-Factor {W/m2-K}
  0.41,                                   !- Solar Heat Gain Coefficient
  0.32;                                   !- Visible Transmittance

OS:Material,
  {50082c14-b333-435a-b2fe-8fd17e1ec139}, !- Handle
  F08 Metal surface,                      !- Name
  Smooth,                                 !- Roughness
  0.0008,                                 !- Thickness {m}
  45.2800000000001,                       !- Conductivity {W/m-K}
  7823.99999999999,                       !- Density {kg/m3}
  500,                                    !- Specific Heat {J/kg-K}
  0.9,                                    !- Thermal Absorptance
  0.7,                                    !- Solar Absorptance
  0.7;                                    !- Visible Absorptance

OS:StandardsInformation:Material,
  {911178a2-0760-4c35-8c2d-999b94132ed2}, !- Handle
  {50082c14-b333-435a-b2fe-8fd17e1ec139}; !- Material Name

OS:Material:NoMass,
  {c2888bbd-8388-4512-b20e-f3ecbeac9c8f}, !- Handle
  Typical Insulation R-2.17 1,            !- Name
  Smooth,                                 !- Roughness
  0.381975016884895,                      !- Thermal Resistance {m2-K/W}
  0.9,                                    !- Thermal Absorptance
  0.7,                                    !- Solar Absorptance
  0.7;                                    !- Visible Absorptance

OS:WindowMaterial:Glazing,
  {b69f805a-ebdb-4820-9046-32d009c16bb5}, !- Handle
  Clear 3mm 1,                            !- Name
  SpectralAverage,                        !- Optical Data Type
  ,                                       !- Window Glass Spectral Data Set Name
  0.002,                                  !- Thickness {m}
  0.837,                                  !- Solar Transmittance at Normal Incidence
  0.075,                                  !- Front Side Solar Reflectance at Normal Incidence
  0.075,                                  !- Back Side Solar Reflectance at Normal Incidence
  0.898,                                  !- Visible Transmittance at Normal Incidence
  0.081,                                  !- Front Side Visible Reflectance at Normal Incidence
  0.081,                                  !- Back Side Visible Reflectance at Normal Incidence
  0,                                      !- Infrared Transmittance at Normal Incidence
  0.84,                                   !- Front Side Infrared Hemispherical Emissivity
  0.84,                                   !- Back Side Infrared Hemispherical Emissivity
  0.9,                                    !- Conductivity {W/m-K}
  1,                                      !- Dirt Correction Factor for Solar and Visible Transmittance
  No;                                     !- Solar Diffusing

OS:Rendering:Color,
  {564a27b8-e719-4cf4-87b1-3e1bc6a55ba9}, !- Handle
  Rendering Color 1,                      !- Name
  0,                                      !- Rendering Red Value
  139,                                    !- Rendering Green Value
  139;                                    !- Rendering Blue Value

OS:Rendering:Color,
  {38311cd0-48c6-4416-8e97-d354a7c4d454}, !- Handle
  Rendering Color 2,                      !- Name
  0,                                      !- Rendering Red Value
  206,                                    !- Rendering Green Value
  209;                                    !- Rendering Blue Value

OS:Rendering:Color,
  {40cf0344-1ed4-4130-bb48-00f264cee4bf}, !- Handle
  Rendering Color 3,                      !- Name
  139,                                    !- Rendering Red Value
  0,                                      !- Rendering Green Value
  139;                                    !- Rendering Blue Value

OS:Rendering:Color,
  {aa6f21e7-93b5-4eb1-9958-95b16b6a94f0}, !- Handle
  Rendering Color 4,                      !- Name
  169,                                    !- Rendering Red Value
  169,                                    !- Rendering Green Value
  169;                                    !- Rendering Blue Value

OS:Rendering:Color,
  {7e5ef0a7-88ef-461f-912c-5e5f049690a1}, !- Handle
  Rendering Color 5,                      !- Name
  205,                                    !- Rendering Red Value
  92,                                     !- Rendering Green Value
  92;                                     !- Rendering Blue Value

OS:Rendering:Color,
  {f212c72d-8b40-4d82-a488-9a7e37ec31e3}, !- Handle
  Rendering Color 6,                      !- Name
  165,                                    !- Rendering Red Value
  42,                                     !- Rendering Green Value
  42;                                     !- Rendering Blue Value

OS:Rendering:Color,
  {35497584-84b8-490b-b9e2-511d358b6175}, !- Handle
  Rendering Color 7,                      !- Name
  144,                                    !- Rendering Red Value
  238,                                    !- Rendering Green Value
  144;                                    !- Rendering Blue Value

OS:Rendering:Color,
  {81027673-6e2e-4fb0-8c98-b5d0eb3ab898}, !- Handle
  Rendering Color 8,                      !- Name
  219,                                    !- Rendering Red Value
  112,                                    !- Rendering Green Value
  147;                                    !- Rendering Blue Value

OS:Rendering:Color,
  {15f30d4f-361c-4159-bdcc-924dc4de271f}, !- Handle
  Rendering Color 9,                      !- Name