
OS:Version,
  {de46e971-287e-4a1b-922c-3954b362a813}, !- Handle
  3.1.0;                                  !- Version Identifier

OS:Site,
  {7580dd0b-0c77-49e5-8037-ea2e602d0180}, !- Handle
  BROOMFIELD-JEFFCO,                      !- Name
  39.91,                                  !- Latitude {deg}
  39.91,                                  !- Longitude {deg}
  -7,                                     !- Time Zone {hr}
  1728,                                   !- Elevation {m}
  ;                                       !- Terrain

OS:YearDescription,
  {e67f1241-f71a-46af-a86f-fe88df6384e0}, !- Handle
  ,                                       !- Calendar Year
  Sunday,                                 !- Day of Week for Start Day
  ;                                       !- Is Leap Year

OS:ClimateZones,
  {8fb427f5-be27-4432-8c04-4b3a1e8901ee}, !- Handle
  ASHRAE,                                 !- Climate Zone Institution Name 1
  ANSI/ASHRAE Standard 169,               !- Climate Zone Document Name 1
  2006,                                   !- Climate Zone Document Year 1
  ,                                       !- Climate Zone Value 1
  CEC,                                    !- Climate Zone Institution Name 2
  California Climate Zone Descriptions,   !- Climate Zone Document Name 2
  1995,                                   !- Climate Zone Document Year 2
  ;                                       !- Climate Zone Value 2

OS:Building,
  {9964c2d0-7375-42dd-9eb8-53d8786fa29c}, !- Handle
  Building 1,                             !- Name
  ,                                       !- Building Sector Type
  -0,                                     !- North Axis {deg}
  ,                                       !- Nominal Floor to Floor Height {m}
  {5d3a6306-3985-4d88-81d5-75bc5a79df8e}, !- Space Type Name
  {7cf734d4-c744-4f54-a3a7-8939b0dde497}, !- Default Construction Set Name
  {7eaf90dc-d212-49a2-83f1-ae3fdc4e4021}; !- Default Schedule Set Name

OS:Facility,
  {f5095af9-2620-4ab6-bcbe-1a4b472109e9}; !- Handle

OS:SimulationControl,
  {1ce57a6d-ed97-4172-affa-94efdc5ce1b0}, !- Handle
  Yes,                                    !- Do Zone Sizing Calculation
  Yes,                                    !- Do System Sizing Calculation
  Yes,                                    !- Do Plant Sizing Calculation
  No;                                     !- Run Simulation for Sizing Periods

OS:Sizing:Parameters,
  {9c785a40-5978-49d8-a8f0-917f5f585242}, !- Handle
  1.25,                                   !- Heating Sizing Factor
  1.15;                                   !- Cooling Sizing Factor

OS:Timestep,
  {c4477f2c-980a-4140-b079-a76d36537ba7}, !- Handle
  6;                                      !- Number of Timesteps per Hour

OS:ShadowCalculation,
  {bd8503da-25b4-419c-9330-e340c454fb0b}, !- Handle
  PolygonClipping,                        !- Shading Calculation Method
  ,                                       !- Shading Calculation Update Frequency Method
  20,                                     !- Shading Calculation Update Frequency
  15000,                                  !- Maximum Figures in Shadow Overlap Calculations
  ,                                       !- Polygon Clipping Algorithm
  512,                                    !- Pixel Counting Resolution
  ,                                       !- Sky Diffuse Modeling Algorithm
  No,                                     !- Output External Shading Calculation Results
  No,                                     !- Disable Self-Shading Within Shading Zone Groups
  No;                                     !- Disable Self-Shading From Shading Zone Groups to Other Zones

OS:HeatBalanceAlgorithm,
  {54393684-f17f-4169-b525-6b6f37eca38c}, !- Handle
  ConductionTransferFunction,             !- Algorithm
  200;                                    !- Surface Temperature Upper Limit {C}

OS:RunPeriod,
  {44e8382e-bcdb-4454-9646-194677df8a79}, !- Handle
  Run Period 1,                           !- Name
  1,                                      !- Begin Month
  1,                                      !- Begin Day of Month
  12,                                     !- End Month
  31,                                     !- End Day of Month
  ,                                       !- Use Weather File Holidays and Special Days
  ,                                       !- Use Weather File Daylight Saving Period
  ,                                       !- Apply Weekend Holiday Rule
  ,                                       !- Use Weather File Rain Indicators
  ,                                       !- Use Weather File Snow Indicators
  ;                                       !- Number of Times Runperiod to be Repeated

OS:LifeCycleCost:Parameters,
  {a91ca5ec-5453-4d92-bd1f-84c84226a051}, !- Handle
  ,                                       !- Analysis Type
  ,                                       !- Discounting Convention
  ,                                       !- Inflation Approach
  ,                                       !- Real Discount Rate
  ,                                       !- Nominal Discount Rate
  ,                                       !- Inflation
  ,                                       !- Base Date Month
  ,                                       !- Base Date Year
  ,                                       !- Service Date Month
  ,                                       !- Service Date Year
  ;                                       !- Length of Study Period in Years

OS:WeatherFile,
  {fb4f545a-5a3c-4938-9c28-4bf972d0e0b5}, !- Handle
  BROOMFIELD-JEFFCO,                      !- City
  -,                                      !- State Province Region
  USA,                                    !- Country
  Custom-724699,                          !- Data Source
  724699,                                 !- WMO Number
  39.91,                                  !- Latitude {deg}
  -105.12,                                !- Longitude {deg}
  -7,                                     !- Time Zone {hr}
  1728,                                   !- Elevation {m}
  files/2019 NREL Wx.epw,                 !- Url
  FFFC57CB;                               !- Checksum

OS:SizingPeriod:DesignDay,
  {d521904d-414f-4977-88b9-82bb25189a9e}, !- Handle
  Denver Centennial  Golden   N Ann Clg .4% Condns DB=>MWB, !- Name
  33,                                     !- Maximum Dry-Bulb Temperature {C}
  15.2,                                   !- Daily Dry-Bulb Temperature Range {deltaC}
  15.7,                                   !- Humidity Indicating Conditions at Maximum Dry-Bulb
  81198,                                  !- Barometric Pressure {Pa}
  4.9,                                    !- Wind Speed {m/s}
  0,                                      !- Wind Direction {deg}
  0,                                      !- Sky Clearness
  0,                                      !- Rain Indicator
  0,                                      !- Snow Indicator
  21,                                     !- Day of Month
  7,                                      !- Month
  SummerDesignDay,                        !- Day Type
  0,                                      !- Daylight Saving Time Indicator
  Wetbulb,                                !- Humidity Indicating Type
  ,                                       !- Humidity Indicating Day Schedule Name
  DefaultMultipliers,                     !- Dry-Bulb Temperature Range Modifier Type
  ,                                       !- Dry-Bulb Temperature Range Modifier Schedule Name
  ASHRAETau,                              !- Solar Model Indicator
  ,                                       !- Beam Solar Day Schedule Name
  ,                                       !- Diffuse Solar Day Schedule Name
  0.424,                                  !- ASHRAE Taub {dimensionless}
  2.025;                                  !- ASHRAE Taud {dimensionless}

OS:Space,
  {9adc9a7e-c7a0-45b9-a52f-7340e864c274}, !- Handle
  Space 1 - 1,                            !- Name
  ,                                       !- Space Type Name
  ,                                       !- Default Construction Set Name
  {8014d3ba-33c6-4819-a2c5-92fcf53c73e2}, !- Default Schedule Set Name
  ,                                       !- Direction of Relative North {deg}
  ,                                       !- X Origin {m}
  ,                                       !- Y Origin {m}
  ,                                       !- Z Origin {m}
  {b904d8ef-3b2a-464c-ad4a-895076351ffe}, !- Building Story Name
  {590f7e81-66bf-441b-8196-03e209d12f57}, !- Thermal Zone Name
  ,                                       !- Part of Total Floor Area
  ,                                       !- Design Specification Outdoor Air Object Name
  ;                                       !- Building Unit Name

OS:BuildingStory,
  {b904d8ef-3b2a-464c-ad4a-895076351ffe}, !- Handle
  Story 1,                                !- Name
  0,                                      !- Nominal Z Coordinate {m}
  2.4384,                                 !- Nominal Floor to Floor Height {m}
  ,                                       !- Default Construction Set Name
  ,                                       !- Default Schedule Set Name
  {bdd1f07a-2477-47bc-bc77-6216ad730556}, !- Group Rendering Name
  2.4384;                                 !- Nominal Floor to Ceiling Height {m}

OS:Rendering:Color,
  {bdd1f07a-2477-47bc-bc77-6216ad730556}, !- Handle
  Rendering Color 1,                      !- Name
  51,                                     !- Rendering Red Value
  34,                                     !- Rendering Green Value
  136,                                    !- Rendering Blue Value
  255;                                    !- Rendering Alpha Value

OS:Surface,
  {49bc7d85-d457-4da3-848d-abfde05f646f}, !- Handle
  Face 3,                                 !- Name
  Wall,                                   !- Surface Type
  ,                                       !- Construction Name
  {9adc9a7e-c7a0-45b9-a52f-7340e864c274}, !- Space Name
  Outdoors,                               !- Outside Boundary Condition
  ,                                       !- Outside Boundary Condition Object
  SunExposed,                             !- Sun Exposure
  WindExposed,                            !- Wind Exposure
  ,                                       !- View Factor to Ground
  ,                                       !- Number of Vertices
  -18.288, 9.144, 2.4384,                 !- X,Y,Z Vertex 1 {m}
  -64.008, 9.144, 2.4384,                 !- X,Y,Z Vertex 2 {m}
  -64.008, 9.144, 0,                      !- X,Y,Z Vertex 3 {m}
  -18.288, 9.144, 0;                      !- X,Y,Z Vertex 4 {m}

OS:Surface,
  {cfced639-d60c-4a58-9a1a-a6041d46e084}, !- Handle
  Face 2,                                 !- Name
  Wall,                                   !- Surface Type
  ,                                       !- Construction Name
  {9adc9a7e-c7a0-45b9-a52f-7340e864c274}, !- Space Name
  Outdoors,                               !- Outside Boundary Condition
  ,                                       !- Outside Boundary Condition Object
  SunExposed,                             !- Sun Exposure
  WindExposed,                            !- Wind Exposure
  ,                                       !- View Factor to Ground
  ,                                       !- Number of Vertices
  -18.288, 32.004, 2.4384,                !- X,Y,Z Vertex 1 {m}
  -18.288, 9.144, 2.4384,                 !- X,Y,Z Vertex 2 {m}
  -18.288, 9.144, 0,                      !- X,Y,Z Vertex 3 {m}
  -18.288, 32.004, 0;                     !- X,Y,Z Vertex 4 {m}

OS:Surface,
  {b8ca789c-b129-419d-a548-931c72ebddbe}, !- Handle
  Face 0,                                 !- Name
  Floor,                                  !- Surface Type
  ,                                       !- Construction Name
  {9adc9a7e-c7a0-45b9-a52f-7340e864c274}, !- Space Name
  Ground,                                 !- Outside Boundary Condition
  ,                                       !- Outside Boundary Condition Object
  NoSun,                                  !- Sun Exposure
  NoWind,                                 !- Wind Exposure
  ,                                       !- View Factor to Ground
  ,                                       !- Number of Vertices
  -18.288, 32.004, 0,                     !- X,Y,Z Vertex 1 {m}
  -18.288, 9.144, 0,                      !- X,Y,Z Vertex 2 {m}
  -64.008, 9.144, 0,                      !- X,Y,Z Vertex 3 {m}
  -64.008, 32.004, 0;                     !- X,Y,Z Vertex 4 {m}

OS:Surface,
  {a3b108f5-d179-4956-b6c6-7490ab9d7bda}, !- Handle
  Face 1,                                 !- Name
  RoofCeiling,                            !- Surface Type
  ,                                       !- Construction Name
  {9adc9a7e-c7a0-45b9-a52f-7340e864c274}, !- Space Name
  Outdoors,                               !- Outside Boundary Condition
  ,                                       !- Outside Boundary Condition Object
  SunExposed,                             !- Sun Exposure
  WindExposed,                            !- Wind Exposure
  ,                                       !- View Factor to Ground
  ,                                       !- Number of Vertices
  -64.008, 32.004, 2.4384,                !- X,Y,Z Vertex 1 {m}
  -64.008, 9.144, 2.4384,                 !- X,Y,Z Vertex 2 {m}
  -18.288, 9.144, 2.4384,                 !- X,Y,Z Vertex 3 {m}
  -18.288, 32.004, 2.4384;                !- X,Y,Z Vertex 4 {m}

OS:Surface,
  {9f9c3b9e-d32a-4245-bdb1-eef84b8eddd4}, !- Handle
  Face 5,                                 !- Name
  Wall,                                   !- Surface Type
  ,                                       !- Construction Name
  {9adc9a7e-c7a0-45b9-a52f-7340e864c274}, !- Space Name
  Outdoors,                               !- Outside Boundary Condition
  ,                                       !- Outside Boundary Condition Object
  SunExposed,                             !- Sun Exposure
  WindExposed,                            !- Wind Exposure
  ,                                       !- View Factor to Ground
  ,                                       !- Number of Vertices
  -64.008, 32.004, 2.4384,                !- X,Y,Z Vertex 1 {m}
  -18.288, 32.004, 2.4384,                !- X,Y,Z Vertex 2 {m}
  -18.288, 32.004, 0,                     !- X,Y,Z Vertex 3 {m}
  -64.008, 32.004, 0;                     !- X,Y,Z Vertex 4 {m}

OS:Surface,
  {8d9f3ff6-865f-4a2c-b81a-bf1eff739264}, !- Handle
  Face 4,                                 !- Name
  Wall,                                   !- Surface Type
  ,                                       !- Construction Name
  {9adc9a7e-c7a0-45b9-a52f-7340e864c274}, !- Space Name
  Outdoors,                               !- Outside Boundary Condition
  ,                                       !- Outside Boundary Condition Object
  SunExposed,                             !- Sun Exposure
  WindExposed,                            !- Wind Exposure
  ,                                       !- View Factor to Ground
  ,                                       !- Number of Vertices
  -64.008, 9.144, 2.4384,                 !- X,Y,Z Vertex 1 {m}
  -64.008, 32.004, 2.4384,                !- X,Y,Z Vertex 2 {m}
  -64.008, 32.004, 0,                     !- X,Y,Z Vertex 3 {m}
  -64.008, 9.144, 0;                      !- X,Y,Z Vertex 4 {m}

OS:SpaceType,
  {5d3a6306-3985-4d88-81d5-75bc5a79df8e}, !- Handle
  189.1-2009 - Office - BreakRoom - CZ1-3, !- Name
  ,                                       !- Default Construction Set Name
  {6ab1a204-0847-470c-843e-ef55611c4895}, !- Default Schedule Set Name
  {71acdfc5-d721-4c6c-b01d-cf4b63426f33}, !- Group Rendering Name
  {567043a5-f6b1-4d26-95d4-e1ebfecfbf48}, !- Design Specification Outdoor Air Object Name
  ,                                       !- Standards Template
  Office,                                 !- Standards Building Type
  BreakRoom;                              !- Standards Space Type

OS:DefaultScheduleSet,
  {6ab1a204-0847-470c-843e-ef55611c4895}, !- Handle
  189.1-2009 - Office - BreakRoom - CZ1-3 Schedule Set, !- Name
  ,                                       !- Hours of Operation Schedule Name
  {480fb68c-28d9-4059-8232-60be8b083158}, !- Number of People Schedule Name
  {7509cef9-f00c-49a4-8f88-0d3d9d37a86a}, !- People Activity Level Schedule Name
  {40563e10-eeab-48e3-a1e8-52a49e589f6b}, !- Lighting Schedule Name
  {3802563f-8749-4f93-9620-b6a80f6d7f74}, !- Electric Equipment Schedule Name
  ,                                       !- Gas Equipment Schedule Name
  ,                                       !- Hot Water Equipment Schedule Name
  {c12e3caa-aadf-4957-b116-7d0c788a85c9}, !- Infiltration Schedule Name
  ,                                       !- Steam Equipment Schedule Name
  ;                                       !- Other Equipment Schedule Name

OS:Rendering:Color,
  {71acdfc5-d721-4c6c-b01d-cf4b63426f33}, !- Handle
  Rendering Color 2,                      !- Name
  230,                                    !- Rendering Red Value
  157,                                    !- Rendering Green Value
  120;                                    !- Rendering Blue Value

OS:DesignSpecification:OutdoorAir,
  {567043a5-f6b1-4d26-95d4-e1ebfecfbf48}, !- Handle
  189.1-2009 - Office - BreakRoom - CZ1-3 Ventilation, !- Name
  Sum,                                    !- Outdoor Air Method
  0.007079211648,                         !- Outdoor Air Flow per Person {m3/s-person}
  ,                                       !- Outdoor Air Flow per Floor Area {m3/s-m2}
  ,                                       !- Outdoor Air Flow Rate {m3/s}
  ,                                       !- Outdoor Air Flow Air Changes per Hour {1/hr}
  ;                                       !- Outdoor Air Flow Rate Fraction Schedule Name

OS:Schedule:Ruleset,
  {480fb68c-28d9-4059-8232-60be8b083158}, ! Handle
  Office Misc Occ,                        ! Name
  {4459fc8c-cb55-426d-9e28-0a7a35e98fd9}, ! Schedule Type Limits Name
  {2863db09-c8f2-4a40-af0c-8c4171f46434}, ! Default Day Schedule Name
  {5bf619c8-542e-4273-92de-1d598088b950}, ! Summer Design Day Schedule Name
  {b9837c0d-5ea6-4406-a5f9-e714e0a1fb60}; ! Winter Design Day Schedule Name

OS:Schedule:Day,
  {2863db09-c8f2-4a40-af0c-8c4171f46434}, ! Handle
  Office Bldg Occ Default Schedule 1,     ! Name
  {4459fc8c-cb55-426d-9e28-0a7a35e98fd9}, ! Schedule Type Limits Name
  ,                                       ! Interpolate to Timestep
  6,                                      !- Hour 1
  0,                                      !- Minute 1
  0,                                      !- Value Until Time 1
  7,                                      !- Hour 2
  0,                                      !- Minute 2
  0.100000001490116,                      !- Value Until Time 2
  8,                                      !- Hour 3
  0,                                      !- Minute 3
  0.200000002980232,                      !- Value Until Time 3
  20,                                     !- Hour 4
  0,                                      !- Minute 4
  0.400000005960464,                      !- Value Until Time 4
  22,                                     !- Hour 5
  0,                                      !- Minute 5
  0.100000001490116,                      !- Value Until Time 5
  24,                                     !- Hour 6
  0,                                      !- Minute 6
  0.0500000007450581;                     !- Value Until Time 6

OS:Schedule:Day,
  {5bf619c8-542e-4273-92de-1d598088b950}, ! Handle
  Office Bldg Occ Summer Design Day 1,    ! Name
  {4459fc8c-cb55-426d-9e28-0a7a35e98fd9}, ! Schedule Type Limits Name
  ,                                       ! Interpolate to Timestep
  6,                                      ! Hour 1
  0,                                      ! Minute 1
  0,                                      ! Value Until Time 1
  22,                                     ! Hour 2
  0,                                      ! Minute 2
  1,                                      ! Value Until Time 2
  24,                                     ! Hour 3
  0,                                      ! Minute 3
  0.050000000000000003;                   ! Value Until Time 3

OS:Schedule:Day,
  {b9837c0d-5ea6-4406-a5f9-e714e0a1fb60}, ! Handle
  Office Bldg Occ Winter Design Day 1,    ! Name
  {4459fc8c-cb55-426d-9e28-0a7a35e98fd9}, ! Schedule Type Limits Name
  ,                                       ! Interpolate to Timestep
  24,                                     ! Hour 1
  0,                                      ! Minute 1
  0;                                      ! Value Until Time 1

OS:Schedule:Rule,
  {589a6666-bc2e-4427-9d32-d5d5a7e08a67}, !- Handle
  Office Misc Occ Rule 1,                 !- Name
  {480fb68c-28d9-4059-8232-60be8b083158}, !- Schedule Ruleset Name
  0,                                      !- Rule Order
  {6fab4893-9183-436a-a299-39359c75c7eb}, !- Day Schedule Name
  Yes,                                    !- Apply Sunday
  No,                                     !- Apply Monday
  No,                                     !- Apply Tuesday
  No,                                     !- Apply Wednesday
  No,                                     !- Apply Thursday
  No,                                     !- Apply Friday
  No,                                     !- Apply Saturday
  DateRange,                              !- Date Specification Type
  1,                                      !- Start Month
  1,                                      !- Start Day
  12,                                     !- End Month
  31;                                     !- End Day

OS:Schedule:Rule,
  {d37c1810-1c25-40bd-b640-5274cef90feb}, !- Handle
  Office Misc Occ Rule 2,                 !- Name
  {480fb68c-28d9-4059-8232-60be8b083158}, !- Schedule Ruleset Name
  1,                                      !- Rule Order
  {f220a07a-3b28-4194-9a64-6981a281b347}, !- Day Schedule Name
  No,                                     !- Apply Sunday
  No,                                     !- Apply Monday
  No,                                     !- Apply Tuesday
  No,                                     !- Apply Wednesday
  No,                                     !- Apply Thursday
  No,                                     !- Apply Friday
  Yes,                                    !- Apply Saturday
  DateRange,                              !- Date Specification Type
  1,                                      !- Start Month
  1,                                      !- Start Day
  12,                                     !- End Month
  31;                                     !- End Day

OS:Schedule:Day,
  {6fab4893-9183-436a-a299-39359c75c7eb}, ! Handle
  Office Bldg Occ Rule 1 Day Schedule 1,  ! Name
  {4459fc8c-cb55-426d-9e28-0a7a35e98fd9}, ! Schedule Type Limits Name
  ,                                       ! Interpolate to Timestep
  24,                                     ! Hour 1
  0,                                      ! Minute 1
  0;                                      ! Value Until Time 1

OS:Schedule:Day,
  {f220a07a-3b28-4194-9a64-6981a281b347}, ! Handle
  Office Bldg Occ Rule 2 Day Schedule 1,  ! Name
  {4459fc8c-cb55-426d-9e28-0a7a35e98fd9}, ! Schedule Type Limits Name
  ,                                       ! Interpolate to Timestep
  6,                                      !- Hour 1
  0,                                      !- Minute 1
  0,                                      !- Value Until Time 1
  8,                                      !- Hour 2
  0,                                      !- Minute 2
  0.100000001490116,                      !- Value Until Time 2
  14,                                     !- Hour 3
  0,                                      !- Minute 3
  0.25,                                   !- Value Until Time 3
  17,                                     !- Hour 4
  0,                                      !- Minute 4
  0.100000001490116,                      !- Value Until Time 4
  24,                                     !- Hour 5
  0,                                      !- Minute 5
  0;                                      !- Value Until Time 5

OS:Schedule:Ruleset,
  {7509cef9-f00c-49a4-8f88-0d3d9d37a86a}, ! Handle
  Office Activity,                        ! Name
  {db4f46af-579d-4012-aeb8-89836a864f89}, ! Schedule Type Limits Name
  {eefa80b3-13f9-4bdd-88c2-569e7e36b849}, ! Default Day Schedule Name
  {8a1e90a1-10db-4e67-938f-3bd5814a2b74}, ! Summer Design Day Schedule Name
  {555cb6e1-d72a-4db2-8bfe-c68d6dde1b0a}; ! Winter Design Day Schedule Name

OS:Schedule:Day,
  {eefa80b3-13f9-4bdd-88c2-569e7e36b849}, ! Handle
  Office Activity Default Schedule,       ! Name
  {db4f46af-579d-4012-aeb8-89836a864f89}, ! Schedule Type Limits Name
  ,                                       ! Interpolate to Timestep
  24,                                     !- Hour 1
  0,                                      !- Minute 1
  132;                                    !- Value Until Time 1

OS:Schedule:Day,
  {8a1e90a1-10db-4e67-938f-3bd5814a2b74}, ! Handle
  Office Activity Summer Design Day,      ! Name
  {db4f46af-579d-4012-aeb8-89836a864f89}, ! Schedule Type Limits Name
  ,                                       ! Interpolate to Timestep
  24,                                     !- Hour 1
  0,                                      !- Minute 1
  132;                                    !- Value Until Time 1

OS:Schedule:Day,
  {555cb6e1-d72a-4db2-8bfe-c68d6dde1b0a}, ! Handle
  Office Activity Winter Design Day,      ! Name
  {db4f46af-579d-4012-aeb8-89836a864f89}, ! Schedule Type Limits Name
  ,                                       ! Interpolate to Timestep
  24,                                     !- Hour 1
  0,                                      !- Minute 1
  132;                                    !- Value Until Time 1

OS:Schedule:Ruleset,
  {40563e10-eeab-48e3-a1e8-52a49e589f6b}, ! Handle
  Office Bldg Light,                      ! Name
  {4459fc8c-cb55-426d-9e28-0a7a35e98fd9}, ! Schedule Type Limits Name
  {c8f25cda-7e49-4088-8756-e9f7f2b9e405}, ! Default Day Schedule Name
  {236ba781-c42b-40ae-8788-bcffd4ebc15d}, ! Summer Design Day Schedule Name
  {6a9632ee-f48a-45dc-9402-1b3d8d26cc00}; ! Winter Design Day Schedule Name

OS:Schedule:Day,
  {c8f25cda-7e49-4088-8756-e9f7f2b9e405}, ! Handle
  Office Bldg Light Default Schedule,     ! Name
  {4459fc8c-cb55-426d-9e28-0a7a35e98fd9}, ! Schedule Type Limits Name
  ,                                       ! Interpolate to Timestep
  5,                                      !- Hour 1
  0,                                      !- Minute 1
  0.05,                                   !- Value Until Time 1
  7,                                      !- Hour 2
  0,                                      !- Minute 2
  0.1,                                    !- Value Until Time 2
  8,                                      !- Hour 3
  0,                                      !- Minute 3
  0.3,                                    !- Value Until Time 3
  17,                                     !- Hour 4
  0,                                      !- Minute 4
  0.9,                                    !- Value Until Time 4
  18,                                     !- Hour 5
  0,                                      !- Minute 5
  0.7,                                    !- Value Until Time 5
  20,                                     !- Hour 6
  0,                                      !- Minute 6
  0.5,                                    !- Value Until Time 6
  22,                                     !- Hour 7
  0,                                      !- Minute 7
  0.3,                                    !- Value Until Time 7
  23,                                     !- Hour 8
  0,                                      !- Minute 8
  0.1,                                    !- Value Until Time 8
  24,                                     !- Hour 9
  0,                                      !- Minute 9
  0.05;                                   !- Value Until Time 9

OS:Schedule:Day,
  {236ba781-c42b-40ae-8788-bcffd4ebc15d}, ! Handle
  Office Bldg Light Summer Design Day,    ! Name
  {4459fc8c-cb55-426d-9e28-0a7a35e98fd9}, ! Schedule Type Limits Name
  ,                                       ! Interpolate to Timestep
  24,                                     ! Hour 1
  0,                                      ! Minute 1
  1;                                      ! Value Until Time 1

OS:Schedule:Day,
  {6a9632ee-f48a-45dc-9402-1b3d8d26cc00}, ! Handle
  Office Bldg Light Winter Design Day,    ! Name
  {4459fc8c-cb55-426d-9e28-0a7a35e98fd9}, ! Schedule Type Limits Name
  ,                                       ! Interpolate to Timestep
  24,                                     ! Hour 1
  0,                                      ! Minute 1
  0;                                      ! Value Until Time 1

OS:Schedule:Rule,
  {59023c55-dacf-4d2a-ad30-7b69aac15d85}, !- Handle
  Office Bldg Light Rule 1,               !- Name
  {40563e10-eeab-48e3-a1e8-52a49e589f6b}, !- Schedule Ruleset Name
  0,                                      !- Rule Order
  {42987ca7-4507-4d17-8778-cde6ee6be560}, !- Day Schedule Name
  Yes,                                    !- Apply Sunday
  No,                                     !- Apply Monday
  No,                                     !- Apply Tuesday
  No,                                     !- Apply Wednesday
  No,                                     !- Apply Thursday
  No,                                     !- Apply Friday
  No,                                     !- Apply Saturday
  DateRange,                              !- Date Specification Type
  1,                                      !- Start Month