
Version,
  9.4;                                    !- Version Identifier

Timestep,
  1;                                      !- Number of Timesteps per Hour

LifeCycleCost:Parameters,
  Life Cycle Cost Parameters,             !- Name
  EndOfYear,                              !- Discounting Convention
  ConstantDollar,                         !- Inflation Approach
  0.03,                                   !- Real Discount Rate
  ,                                       !- Nominal Discount Rate
  ,                                       !- Inflation
  ,                                       !- Base Date Month
  2011,                                   !- Base Date Year
  ,                                       !- Service Date Month
  2011,                                   !- Service Date Year
  25,                                     !- Length of Study Period in Years
  ,                                       !- Tax rate
  None;                                   !- Depreciation Method

LifeCycleCost:UsePriceEscalation,
  U.S. Avg  Commercial-Electricity,       !- Name
  Electricity,                            !- Resource
  2011,                                   !- Escalation Start Year
  January,                                !- Escalation Start Month
  0.9838,                                 !- Year Escalation 1
  0.9730,                                 !- Year Escalation 2
  0.9632,                                 !- Year Escalation 3
  0.9611,                                 !- Year Escalation 4
  0.9571,                                 !- Year Escalation 5
  0.9553,                                 !- Year Escalation 6
  0.9539,                                 !- Year Escalation 7
  0.9521,                                 !- Year Escalation 8
  0.9546,                                 !- Year Escalation 9
  0.9550,                                 !- Year Escalation 10
  0.9553,                                 !- Year Escalation 11
  0.9564,                                 !- Year Escalation 12
  0.9575,                                 !- Year Escalation 13
  0.9596,                                 !- Year Escalation 14
  0.9618,                                 !- Year Escalation 15
  0.9614,                                 !- Year Escalation 16
  0.9618,                                 !- Year Escalation 17
  0.9618,                                 !- Year Escalation 18
  0.9593,                                 !- Year Escalation 19
  0.9589,                                 !- Year Escalation 20
  0.9607,                                 !- Year Escalation 21
  0.9625,                                 !- Year Escalation 22
  0.9650,                                 !- Year Escalation 23
  0.9708,                                 !- Year Escalation 24
  0.9751,                                 !- Year Escalation 25
  0.9762,                                 !- Year Escalation 26
  0.9766,                                 !- Year Escalation 27
  0.9766,                                 !- Year Escalation 28
  0.9769,                                 !- Year Escalation 29
  0.9773;                                 !- Year Escalation 30

LifeCycleCost:UsePriceEscalation,
  U.S. Avg  Commercial-Distillate Oil,    !- Name
  FuelOilNo1,                             !- Resource
  2011,                                   !- Escalation Start Year
  January,                                !- Escalation Start Month
  0.9714,                                 !- Year Escalation 1
  0.9730,                                 !- Year Escalation 2
  0.9942,                                 !- Year Escalation 3
  1.0164,                                 !- Year Escalation 4
  1.0541,                                 !- Year Escalation 5
  1.0928,                                 !- Year Escalation 6
  1.1267,                                 !- Year Escalation 7
  1.1580,                                 !- Year Escalation 8
  1.1792,                                 !- Year Escalation 9
  1.1967,                                 !- Year Escalation 10
  1.2200,                                 !- Year Escalation 11
  1.2333,                                 !- Year Escalation 12
  1.2566,                                 !- Year Escalation 13
  1.2709,                                 !- Year Escalation 14
  1.2826,                                 !- Year Escalation 15
  1.2985,                                 !- Year Escalation 16
  1.3102,                                 !- Year Escalation 17
  1.3250,                                 !- Year Escalation 18
  1.3261,                                 !- Year Escalation 19
  1.3282,                                 !- Year Escalation 20
  1.3324,                                 !- Year Escalation 21
  1.3356,                                 !- Year Escalation 22
  1.3431,                                 !- Year Escalation 23
  1.3510,                                 !- Year Escalation 24
  1.3568,                                 !- Year Escalation 25
  1.3606,                                 !- Year Escalation 26
  1.3637,                                 !- Year Escalation 27
  1.3674,                                 !- Year Escalation 28
  1.3706,                                 !- Year Escalation 29
  1.3743;                                 !- Year Escalation 30

LifeCycleCost:UsePriceEscalation,
  U.S. Avg  Commercial-Residual Oil,      !- Name
  FuelOilNo2,                             !- Resource
  2011,                                   !- Escalation Start Year
  January,                                !- Escalation Start Month
  0.8469,                                 !- Year Escalation 1
  0.8257,                                 !- Year Escalation 2
  0.8681,                                 !- Year Escalation 3
  0.8988,                                 !- Year Escalation 4
  0.9289,                                 !- Year Escalation 5
  0.9604,                                 !- Year Escalation 6
  0.9897,                                 !- Year Escalation 7
  1.0075,                                 !- Year Escalation 8
  1.0314,                                 !- Year Escalation 9
  1.0554,                                 !- Year Escalation 10
  1.0861,                                 !- Year Escalation 11
  1.1278,                                 !- Year Escalation 12
  1.1497,                                 !- Year Escalation 13
  1.1620,                                 !- Year Escalation 14
  1.1743,                                 !- Year Escalation 15
  1.1852,                                 !- Year Escalation 16
  1.1948,                                 !- Year Escalation 17
  1.2037,                                 !- Year Escalation 18
  1.2071,                                 !- Year Escalation 19
  1.2119,                                 !- Year Escalation 20
  1.2139,                                 !- Year Escalation 21
  1.2194,                                 !- Year Escalation 22
  1.2276,                                 !- Year Escalation 23
  1.2365,                                 !- Year Escalation 24
  1.2420,                                 !- Year Escalation 25
  1.2461,                                 !- Year Escalation 26
  1.2509,                                 !- Year Escalation 27
  1.2550,                                 !- Year Escalation 28
  1.2591,                                 !- Year Escalation 29
  1.2638;                                 !- Year Escalation 30

LifeCycleCost:UsePriceEscalation,
  U.S. Avg  Commercial-Natural gas,       !- Name
  NaturalGas,                             !- Resource
  2011,                                   !- Escalation Start Year
  January,                                !- Escalation Start Month
  0.9823,                                 !- Year Escalation 1
  0.9557,                                 !- Year Escalation 2
  0.9279,                                 !- Year Escalation 3
  0.9257,                                 !- Year Escalation 4
  0.9346,                                 !- Year Escalation 5
  0.9412,                                 !- Year Escalation 6
  0.9512,                                 !- Year Escalation 7
  0.9645,                                 !- Year Escalation 8
  0.9856,                                 !- Year Escalation 9
  1.0067,                                 !- Year Escalation 10
  1.0222,                                 !- Year Escalation 11
  1.0410,                                 !- Year Escalation 12
  1.0610,                                 !- Year Escalation 13
  1.0787,                                 !- Year Escalation 14
  1.0942,                                 !- Year Escalation 15
  1.1098,                                 !- Year Escalation 16
  1.1220,                                 !- Year Escalation 17
  1.1308,                                 !- Year Escalation 18
  1.1386,                                 !- Year Escalation 19
  1.1486,                                 !- Year Escalation 20
  1.1619,                                 !- Year Escalation 21
  1.1763,                                 !- Year Escalation 22
  1.1918,                                 !- Year Escalation 23
  1.2118,                                 !- Year Escalation 24
  1.2284,                                 !- Year Escalation 25
  1.2439,                                 !- Year Escalation 26
  1.2605,                                 !- Year Escalation 27
  1.2772,                                 !- Year Escalation 28
  1.2938,                                 !- Year Escalation 29
  1.3115;                                 !- Year Escalation 30

LifeCycleCost:UsePriceEscalation,
  U.S. Avg  Commercial-Coal,              !- Name
  Coal,                                   !- Resource
  2011,                                   !- Escalation Start Year
  January,                                !- Escalation Start Month
  0.9970,                                 !- Year Escalation 1
  1.0089,                                 !- Year Escalation 2
  1.0089,                                 !- Year Escalation 3
  0.9941,                                 !- Year Escalation 4
  0.9941,                                 !- Year Escalation 5
  1.0000,                                 !- Year Escalation 6
  1.0030,                                 !- Year Escalation 7
  1.0059,                                 !- Year Escalation 8
  1.0089,                                 !- Year Escalation 9
  1.0119,                                 !- Year Escalation 10
  1.0148,                                 !- Year Escalation 11
  1.0178,                                 !- Year Escalation 12
  1.0208,                                 !- Year Escalation 13
  1.0267,                                 !- Year Escalation 14
  1.0297,                                 !- Year Escalation 15
  1.0356,                                 !- Year Escalation 16
  1.0415,                                 !- Year Escalation 17
  1.0534,                                 !- Year Escalation 18
  1.0564,                                 !- Year Escalation 19
  1.0593,                                 !- Year Escalation 20
  1.0653,                                 !- Year Escalation 21
  1.0712,                                 !- Year Escalation 22
  1.0742,                                 !- Year Escalation 23
  1.0801,                                 !- Year Escalation 24
  1.0831,                                 !- Year Escalation 25
  1.0831,                                 !- Year Escalation 26
  1.0861,                                 !- Year Escalation 27
  1.0890,                                 !- Year Escalation 28
  1.0920,                                 !- Year Escalation 29
  1.0950;                                 !- Year Escalation 30

Building,
  -SecondarySchool-ASHRAE 169-2006-3B created: 2020-11-10 15:39:57 -0700, !- Name
  0,                                      !- North Axis {deg}
  City,                                   !- Terrain
  0.04,                                   !- Loads Convergence Tolerance Value {W}
  0.2,                                    !- Temperature Convergence Tolerance Value {deltaC}
  FullInteriorAndExterior,                !- Solar Distribution
  25,                                     !- Maximum Number of Warmup Days
  6;                                      !- Minimum Number of Warmup Days

Zone,
  Auditorium_ZN_1_FLR_1 ZN,               !- Name
  0,                                      !- Direction of Relative North {deg}
  79,                                     !- X Origin {m}
  75,                                     !- Y Origin {m}
  0,                                      !- Z Origin {m}
  ,                                       !- Type
  1,                                      !- Multiplier
  ,                                       !- Ceiling Height {m}
  ,                                       !- Volume {m3}
  ,                                       !- Floor Area {m2}
  ,                                       !- Zone Inside Convection Algorithm
  ,                                       !- Zone Outside Convection Algorithm
  Yes;                                    !- Part of Total Floor Area

BuildingSurface:Detailed,
  Auditorium_ZN_1_FLR_1_Floor,            !- Name
  Floor,                                  !- Surface Type
  Smallhotel 2010 Slab Floor,             !- Construction Name
  Auditorium_ZN_1_FLR_1 ZN,               !- Zone Name
  Ground,                                 !- Outside Boundary Condition
  ,                                       !- Outside Boundary Condition Object
  NoSun,                                  !- Sun Exposure
  NoWind,                                 !- Wind Exposure
  ,                                       !- View Factor to Ground
  ,                                       !- Number of Vertices
  38, 26, 0,                              !- X,Y,Z Vertex 1 {m}
  38, 0, 0,                               !- X,Y,Z Vertex 2 {m}
  0, 0, 0,                                !- X,Y,Z Vertex 3 {m}
  0, 26, 0;                               !- X,Y,Z Vertex 4 {m}

BuildingSurface:Detailed,
  Auditorium_ZN_1_FLR_1_Wall_1,           !- Name
  Wall,                                   !- Surface Type
  Typical Interior Wall,                  !- Construction Name
  Auditorium_ZN_1_FLR_1 ZN,               !- Zone Name
  Surface,                                !- Outside Boundary Condition
  Mech_ZN_1_FLR_1_Wall_3,                 !- Outside Boundary Condition Object
  NoSun,                                  !- Sun Exposure
  NoWind,                                 !- Wind Exposure
  ,                                       !- View Factor to Ground
  ,                                       !- Number of Vertices
  0, 0, 4,                                !- X,Y,Z Vertex 1 {m}
  0, 0, 0,                                !- X,Y,Z Vertex 2 {m}
  38, 0, 0,                               !- X,Y,Z Vertex 3 {m}
  38, 0, 4;                               !- X,Y,Z Vertex 4 {m}

BuildingSurface:Detailed,
  Auditorium_ZN_1_FLR_1_Wall_2,           !- Name
  Wall,                                   !- Surface Type
  Typical Interior Wall,                  !- Construction Name
  Auditorium_ZN_1_FLR_1 ZN,               !- Zone Name
  Surface,                                !- Outside Boundary Condition
  Cafeteria_ZN_1_FLR_1_Wall_4,            !- Outside Boundary Condition Object
  NoSun,                                  !- Sun Exposure
  NoWind,                                 !- Wind Exposure
  ,                                       !- View Factor to Ground
  ,                                       !- Number of Vertices
  38, 0, 4,                               !- X,Y,Z Vertex 1 {m}
  38, 0, 0,                               !- X,Y,Z Vertex 2 {m}
  38, 26, 0,                              !- X,Y,Z Vertex 3 {m}
  38, 26, 4;                              !- X,Y,Z Vertex 4 {m}

BuildingSurface:Detailed,
  Auditorium_ZN_1_FLR_1_Wall_3,           !- Name
  Wall,                                   !- Surface Type
  Typical Insulated Steel Framed Exterior Wall R-11.9, !- Construction Name
  Auditorium_ZN_1_FLR_1 ZN,               !- Zone Name
  Outdoors,                               !- Outside Boundary Condition
  ,                                       !- Outside Boundary Condition Object
  SunExposed,                             !- Sun Exposure
  WindExposed,                            !- Wind Exposure
  ,                                       !- View Factor to Ground
  ,                                       !- Number of Vertices
  38, 26, 8,                              !- X,Y,Z Vertex 1 {m}
  38, 26, 0,                              !- X,Y,Z Vertex 2 {m}
  0, 26, 0,                               !- X,Y,Z Vertex 3 {m}
  0, 26, 8;                               !- X,Y,Z Vertex 4 {m}

FenestrationSurface:Detailed,
  Auditorium_ZN_1_FLR_1_Wall_3_Door1,     !- Name
  Door,                                   !- Surface Type
  Typical Insulated Metal Door R-1.43,    !- Construction Name
  Auditorium_ZN_1_FLR_1_Wall_3,           !- Building Surface Name
  ,                                       !- Outside Boundary Condition Object
  ,                                       !- View Factor to Ground
  ,                                       !- Frame and Divider Name
  1,                                      !- Multiplier
  ,                                       !- Number of Vertices
  34.697551052816, 26, 2.1336,            !- X,Y,Z Vertex 1 {m}
  34.697551052816, 26, 0,                 !- X,Y,Z Vertex 2 {m}
  33.783151052816, 26, 0,                 !- X,Y,Z Vertex 3 {m}
  33.783151052816, 26, 2.1336;            !- X,Y,Z Vertex 4 {m}

FenestrationSurface:Detailed,
  Auditorium_ZN_1_FLR_1_Wall_3_Door2,     !- Name
  Door,                                   !- Surface Type
  Typical Insulated Metal Door R-1.43,    !- Construction Name
  Auditorium_ZN_1_FLR_1_Wall_3,           !- Building Surface Name
  ,                                       !- Outside Boundary Condition Object
  ,                                       !- View Factor to Ground
  ,                                       !- Frame and Divider Name
  1,                                      !- Multiplier
  ,                                       !- Number of Vertices
  21.001162625423, 26, 2.1336,            !- X,Y,Z Vertex 1 {m}
  21.001162625423, 26, 0,                 !- X,Y,Z Vertex 2 {m}
  20.086762625423, 26, 0,                 !- X,Y,Z Vertex 3 {m}
  20.086762625423, 26, 2.1336;            !- X,Y,Z Vertex 4 {m}

FenestrationSurface:Detailed,
  Auditorium_ZN_1_FLR_1_Wall_3_Door3,     !- Name
  Door,                                   !- Surface Type
  Typical Insulated Metal Door R-1.43,    !- Construction Name
  Auditorium_ZN_1_FLR_1_Wall_3,           !- Building Surface Name
  ,                                       !- Outside Boundary Condition Object
  ,                                       !- View Factor to Ground
  ,                                       !- Frame and Divider Name
  1,                                      !- Multiplier
  ,                                       !- Number of Vertices
  6.249245224883, 26, 2.1336,             !- X,Y,Z Vertex 1 {m}
  6.249245224883, 26, 0,                  !- X,Y,Z Vertex 2 {m}
  5.334845224883, 26, 0,                  !- X,Y,Z Vertex 3 {m}
  5.334845224883, 26, 2.1336;             !- X,Y,Z Vertex 4 {m}

FenestrationSurface:Detailed,
  Auditorium_ZN_1_FLR_2_Wall_3_window_1,  !- Name
  Window,                                 !- Surface Type
  U 0.62 SHGC 0.25 Dbl Ref-C-H Clr 6mm/6mm Air, !- Construction Name
  Auditorium_ZN_1_FLR_1_Wall_3,           !- Building Surface Name
  ,                                       !- Outside Boundary Condition Object
  ,                                       !- View Factor to Ground
  ,                                       !- Frame and Divider Name
  1,                                      !- Multiplier
  ,                                       !- Number of Vertices
  37.95, 26, 6.50371,                     !- X,Y,Z Vertex 1 {m}
  37.95, 26, 3.69628932,                  !- X,Y,Z Vertex 2 {m}
  0.05, 26, 3.69628932,                   !- X,Y,Z Vertex 3 {m}
  0.05, 26, 6.50371;                      !- X,Y,Z Vertex 4 {m}

BuildingSurface:Detailed,
  Auditorium_ZN_1_FLR_1_Wall_4,           !- Name
  Wall,                                   !- Surface Type
  Typical Interior Wall,                  !- Construction Name
  Auditorium_ZN_1_FLR_1 ZN,               !- Zone Name
  Surface,                                !- Outside Boundary Condition
  Main_Corridor_ZN_1_FLR_1_Wall_4,        !- Outside Boundary Condition Object
  NoSun,                                  !- Sun Exposure
  NoWind,                                 !- Wind Exposure
  0,                                      !- View Factor to Ground
  ,                                       !- Number of Vertices
  0, 15, 4,                               !- X,Y,Z Vertex 1 {m}
  0, 15, 0,                               !- X,Y,Z Vertex 2 {m}
  0, 0, 0,                                !- X,Y,Z Vertex 3 {m}
  0, 0, 4;                                !- X,Y,Z Vertex 4 {m}

BuildingSurface:Detailed,
  Auditorium_ZN_1_FLR_1_Wall_4A,          !- Name
  Wall,                                   !- Surface Type
  Typical Interior Wall,                  !- Construction Name
  Auditorium_ZN_1_FLR_1 ZN,               !- Zone Name
  Surface,                                !- Outside Boundary Condition
  Bathrooms_ZN_1_FLR_1_Wall_2,            !- Outside Boundary Condition Object
  NoSun,                                  !- Sun Exposure
  NoWind,                                 !- Wind Exposure
  0,                                      !- View Factor to Ground
  ,                                       !- Number of Vertices
  0, 26, 4,                               !- X,Y,Z Vertex 1 {m}
  0, 26, 0,                               !- X,Y,Z Vertex 2 {m}
  0, 15, 0,                               !- X,Y,Z Vertex 3 {m}
  0, 15, 4;                               !- X,Y,Z Vertex 4 {m}

BuildingSurface:Detailed,
  Auditorium_ZN_1_FLR_2_Ceiling,          !- Name
  Roof,                                   !- Surface Type
  Typical IEAD Roof - Highly Reflective R-20.83, !- Construction Name
  Auditorium_ZN_1_FLR_1 ZN,               !- Zone Name
  Outdoors,                               !- Outside Boundary Condition
  ,                                       !- Outside Boundary Condition Object
  SunExposed,                             !- Sun Exposure
  WindExposed,                            !- Wind Exposure
  ,                                       !- View Factor to Ground
  ,                                       !- Number of Vertices
  38, 0, 8,                               !- X,Y,Z Vertex 1 {m}
  38, 26, 8,                              !- X,Y,Z Vertex 2 {m}
  0, 26, 8,                               !- X,Y,Z Vertex 3 {m}
  0, 0, 8;                                !- X,Y,Z Vertex 4 {m}

BuildingSurface:Detailed,
  Auditorium_ZN_1_FLR_2_Wall_1,           !- Name
  Wall,                                   !- Surface Type
  Typical Interior Wall,                  !- Construction Name
  Auditorium_ZN_1_FLR_1 ZN,               !- Zone Name
  Surface,                                !- Outside Boundary Condition
  Mech_ZN_1_FLR_2_Wall_3,                 !- Outside Boundary Condition Object
  NoSun,                                  !- Sun Exposure
  NoWind,                                 !- Wind Exposure
  ,                                       !- View Factor to Ground
  ,                                       !- Number of Vertices
  0, 0, 8,                                !- X,Y,Z Vertex 1 {m}
  0, 0, 4,                                !- X,Y,Z Vertex 2 {m}
  38, 0, 4,                               !- X,Y,Z Vertex 3 {m}
  38, 0, 8;                               !- X,Y,Z Vertex 4 {m}

BuildingSurface:Detailed,
  Auditorium_ZN_1_FLR_2_Wall_2,           !- Name
  Wall,                                   !- Surface Type
  Typical Interior Wall,                  !- Construction Name
  Auditorium_ZN_1_FLR_1 ZN,               !- Zone Name
  Surface,                                !- Outside Boundary Condition
  LIBRARY_MEDIA_CENTER_Wall_4_B,          !- Outside Boundary Condition Object
  NoSun,                                  !- Sun Exposure
  NoWind,                                 !- Wind Exposure
  ,                                       !- View Factor to Ground
  ,                                       !- Number of Vertices
  38, 0, 8,                               !- X,Y,Z Vertex 1 {m}
  38, 0, 4,                               !- X,Y,Z Vertex 2 {m}
  38, 26, 4,                              !- X,Y,Z Vertex 3 {m}
  38, 26, 8;                              !- X,Y,Z Vertex 4 {m}

BuildingSurface:Detailed,
  Auditorium_ZN_1_FLR_2_Wall_4,           !- Name
  Wall,                                   !- Surface Type
  Typical Interior Wall,                  !- Construction Name
  Auditorium_ZN_1_FLR_1 ZN,               !- Zone Name
  Surface,                                !- Outside Boundary Condition
  Main_Corridor_ZN_1_FLR_2_Wall_4,        !- Outside Boundary Condition Object
  NoSun,                                  !- Sun Exposure
  NoWind,                                 !- Wind Exposure
  0,                                      !- View Factor to Ground
  ,                                       !- Number of Vertices
  0, 15, 8,                               !- X,Y,Z Vertex 1 {m}
  0, 15, 4,                               !- X,Y,Z Vertex 2 {m}
  0, 0, 4,                                !- X,Y,Z Vertex 3 {m}
  0, 0, 8;                                !- X,Y,Z Vertex 4 {m}

BuildingSurface:Detailed,
  Auditorium_ZN_1_FLR_2_Wall_4A,          !- Name
  Wall,                                   !- Surface Type
  Typical Interior Wall,                  !- Construction Name
  Auditorium_ZN_1_FLR_1 ZN,               !- Zone Name
  Surface,                                !- Outside Boundary Condition
  Bathrooms_ZN_1_FLR_2_Wall_2,            !- Outside Boundary Condition Object
  NoSun,                                  !- Sun Exposure
  NoWind,                                 !- Wind Exposure
  0,                                      !- View Factor to Ground
  ,                                       !- Number of Vertices
  0, 26, 8,                               !- X,Y,Z Vertex 1 {m}
  0, 26, 4,                               !- X,Y,Z Vertex 2 {m}
  0, 15, 4,                               !- X,Y,Z Vertex 3 {m}
  0, 15, 8;                               !- X,Y,Z Vertex 4 {m}

InternalMass,
  Auditorium_ZN_1_FLR_1 Mass,             !- Name
  InteriorFurnishings,                    !- Construction Name
  Auditorium_ZN_1_FLR_1 ZN,               !- Zone or ZoneList Name
  1976;                                   !- Surface Area {m2}

ZoneInfiltration:DesignFlowRate,
  Auditorium_ZN_1_FLR_1 Infiltration,     !- Name
  Auditorium_ZN_1_FLR_1 ZN,               !- Zone or ZoneList Name
  SchoolSecondary INFIL_SCH_PNNL,         !- Schedule Name
  Flow/ExteriorArea,                      !- Design Flow Rate Calculation Method
  ,                                       !- Design Flow Rate {m3/s}
  ,                                       !- Flow per Zone Floor Area {m3/s-m2}
  0.0001340172681,                        !- Flow per Exterior Surface Area {m3/s-m2}
  ,                                       !- Air Changes per Hour {1/hr}
  0,                                      !- Constant Term Coefficient
  0,                                      !- Temperature Term Coefficient
  0.224,                                  !- Velocity Term Coefficient
  0;                                      !- Velocity Squared Term Coefficient

Daylighting:Controls,
  Auditorium_ZN_1_FLR_1 ZN DaylightingControls, !- Name
  Auditorium_ZN_1_FLR_1 ZN,               !- Zone Name
  ,                                       !- Daylighting Method
  ,                                       !- Availability Schedule Name
  Stepped,                                !- Lighting Control Type
  0.3,                                    !- Minimum Input Power Fraction for Continuous or ContinuousOff Dimming Control
  0.2,                                    !- Minimum Light Output Fraction for Continuous or ContinuousOff Dimming Control
  3,                                      !- Number of Stepped Control Steps
  1,                                      !- Probability Lighting will be Reset When Needed in Manual Stepped Control
  Auditorium_ZN_1_FLR_1 Daylt Sensor 1,   !- Glare Calculation Daylighting Reference Point Name
  0,                                      !- Glare Calculation Azimuth Angle of View Direction Clockwise from Zone y-Axis {deg}
  22,                                     !- Maximum Allowable Discomfort Glare Index
  ,                                       !- DElight Gridding Resolution {m2}
  Auditorium_ZN_1_FLR_1 Daylt Sensor 1,   !- Daylighting Reference Point Name 1
  0.25,                                   !- Fraction of Zone Controlled by Reference Point 1
  375;                                    !- Illuminance Setpoint at Reference Point 1 {lux}

Daylighting:ReferencePoint,
  Auditorium_ZN_1_FLR_1 Daylt Sensor 1,   !- Name
  Auditorium_ZN_1_FLR_1 ZN,               !- Zone Name
  19,                                     !- X-Coordinate of Reference Point {m}
  21.7075514,                             !- Y-Coordinate of Reference Point {m}
  0.762;                                  !- Z-Coordinate of Reference Point {m}

ZoneControl:Thermostat,
  Auditorium_ZN_1_FLR_1 ZN Thermostat,    !- Name
  Auditorium_ZN_1_FLR_1 ZN,               !- Zone or ZoneList Name
  Auditorium_ZN_1_FLR_1 ZN Thermostat Schedule, !- Control Type Schedule Name