
OS:Version,
  {89c410ae-4fa4-42a6-8a09-036b2f833a76}, !- Handle
  3.1.0;                                  !- Version Identifier

OS:ClimateZones,
  {8a3ac41c-57d4-48e4-a48e-1f232e262211}, !- Handle
  ASHRAE,                                 !- Climate Zone Institution Name 1
  ANSI/ASHRAE Standard 169,               !- Climate Zone Document Name 1
  2006,                                   !- Climate Zone Document Year 1
  5B,                                     !- Climate Zone Value 1
  CEC,                                    !- Climate Zone Institution Name 2
  California Climate Zone Descriptions,   !- Climate Zone Document Name 2
  1995,                                   !- Climate Zone Document Year 2
  ;                                       !- Climate Zone Value 2

OS:LifeCycleCost:Parameters,
  {1d4d0f18-e6dd-45c8-896c-f4f2a89e6ae5}, !- Handle
  FEMP,                                   !- Analysis Type
  ,                                       !- Discounting Convention
  ,                                       !- Inflation Approach
  ,                                       !- Real Discount Rate
  ,                                       !- Nominal Discount Rate
  ,                                       !- Inflation
  ,                                       !- Base Date Month
  ,                                       !- Base Date Year
  ,                                       !- Service Date Month
  ,                                       !- Service Date Year
  ,                                       !- Length of Study Period in Years
  ,                                       !- Tax Rate
  ,                                       !- Depreciation Method
  Yes;                                    !- Use NIST Fuel Escalation Rates

OS:YearDescription,
  {c1349a5a-d7e1-4ed9-8e5b-24480649c25c}, !- Handle
  ,                                       !- Calendar Year
  Sunday,                                 !- Day of Week for Start Day
  ;                                       !- Is Leap Year

OS:RadianceParameters,
  {8297fd56-36de-4b79-a182-b7636f4ae3e3}, !- Handle
  1,                                      !- Accumulated Rays per Record
  0,                                      !- Direct Threshold
  1,                                      !- Direct Certainty
  1,                                      !- Direct Jitter
  1,                                      !- Direct Pretest
  6,                                      !- Ambient Bounces VMX
  2,                                      !- Ambient Bounces DMX
  4050,                                   !- Ambient Divisions VMX
  512,                                    !- Ambient Divisions DMX
  256,                                    !- Ambient Supersamples
  0.001,                                  !- Limit Weight VMX
  0.001,                                  !- Limit Weight DMX
  500,                                    !- Klems Sampling Density
  146;                                    !- Sky Discretization Resolution

OS:SimulationControl,
  {7c57f4fc-548f-44e7-a438-1feca6a75629}, !- Handle
  Yes,                                    !- Do Zone Sizing Calculation
  Yes,                                    !- Do System Sizing Calculation
  Yes,                                    !- Do Plant Sizing Calculation
  No,                                     !- Run Simulation for Sizing Periods
  Yes,                                    !- Run Simulation for Weather File Run Periods
  0.04,                                   !- Loads Convergence Tolerance Value {W}
  0.2;                                    !- Temperature Convergence Tolerance Value {deltaC}

OS:Sizing:Parameters,
  {ee365675-827e-489e-9a24-0f596988dec4}, !- Handle
  1.5,                                    !- Heating Sizing Factor
  1.5;                                    !- Cooling Sizing Factor

OS:ProgramControl,
  {8a7b938e-cdcb-40af-82b1-79c267c36bae}, !- Handle
  8;                                      !- Number of Threads Allowed

OS:Timestep,
  {31824a36-2f0f-4919-a534-cdb00e20d2e0}, !- Handle
  12;                                     !- Number of Timesteps per Hour

OS:OutputControl:ReportingTolerances,
  {275082a5-6cfd-4756-972e-8810ab253e29}, !- Handle
  1,                                      !- Tolerance for Time Heating Setpoint Not Met {deltaC}
  1;                                      !- Tolerance for Time Cooling Setpoint Not Met {deltaC}

OS:ConvergenceLimits,
  {fcca1605-8471-4f2f-a485-a59582311771}, !- Handle
  2,                                      !- Minimum System Timestep {minutes}
  25,                                     !- Maximum HVAC Iterations
  ,                                       !- Minimum Plant Iterations
  8;                                      !- Maximum Plant Iterations

OS:ShadowCalculation,
  {d875de65-75c7-4d9d-883e-07bd79421b67}, !- Handle
  PolygonClipping,                        !- Shading Calculation Method
  ,                                       !- Shading Calculation Update Frequency Method
  1500,                                   !- Shading Calculation Update Frequency
  15000,                                  !- Maximum Figures in Shadow Overlap Calculations
  ,                                       !- Polygon Clipping Algorithm
  512,                                    !- Pixel Counting Resolution
  ,                                       !- Sky Diffuse Modeling Algorithm
  No,                                     !- Output External Shading Calculation Results
  No,                                     !- Disable Self-Shading Within Shading Zone Groups
  No;                                     !- Disable Self-Shading From Shading Zone Groups to Other Zones

OS:SurfaceConvectionAlgorithm:Inside,
  {5add9a33-b760-4e82-a0f9-3ae0e369b9c4}, !- Handle
  TARP;                                   !- Algorithm

OS:SurfaceConvectionAlgorithm:Outside,
  {0257be16-14fc-418e-bc73-178201ccc4ec}, !- Handle
  DOE-2;                                  !- Algorithm

OS:HeatBalanceAlgorithm,
  {5a22c4c4-a6a6-4769-b0a8-f79498f98a6d}, !- Handle
  ConductionTransferFunction,             !- Algorithm
  200;                                    !- Surface Temperature Upper Limit {C}

OS:ZoneAirHeatBalanceAlgorithm,
  {24c912f8-6f7f-4792-8ea0-a8d47b3c41a1}, !- Handle
  ThirdOrderBackwardDifference;           !- Algorithm

OS:ZoneAirContaminantBalance,
  {07e7d420-4b9b-4760-8a70-01b36aa6074f}; !- Handle

OS:ZoneCapacitanceMultiplier:ResearchSpecial,
  {91056672-db13-4057-9cb7-7ac44d24bfc5}, !- Handle
  ,                                       !- Temperature Capacity Multiplier
  ,                                       !- Humidity Capacity Multiplier
  ;                                       !- Carbon Dioxide Capacity Multiplier

OS:RunPeriod,
  {17c33f47-c9b9-463a-84bc-12596f349148}, !- Handle
  Run Period 1,                           !- Name
  1,                                      !- Begin Month
  1,                                      !- Begin Day of Month
  12,                                     !- End Month
  31,                                     !- End Day of Month
  ,                                       !- Use Weather File Holidays and Special Days
  ,                                       !- Use Weather File Daylight Saving Period
  ,                                       !- Apply Weekend Holiday Rule
  ,                                       !- Use Weather File Rain Indicators
  ,                                       !- Use Weather File Snow Indicators
  ;                                       !- Number of Times Runperiod to be Repeated

OS:Building,
  {e0ce3521-4e53-4eca-8017-2f1c8dec2b50}, !- Handle
  Berthoud Hall,                          !- Name
  ,                                       !- Building Sector Type
  90,                                     !- North Axis {deg}
  ,                                       !- Nominal Floor to Floor Height {m}
  {5b229a3a-cadd-4d44-94c5-b6d62873960b}, !- Space Type Name
  {19395367-4d17-41b2-8797-0b1ad42f7779}, !- Default Construction Set Name
  ,                                       !- Default Schedule Set Name
  ,                                       !- Standards Number of Stories
  ,                                       !- Standards Number of Above Ground Stories
  ,                                       !- Standards Template
  ,                                       !- Standards Building Type
  ,                                       !- Standards Number of Living Units
  ,                                       !- Relocatable
  ;                                       !- Nominal Floor to Ceiling Height {m}

OS:Facility,
  {b6e6be84-f909-42a5-9deb-ef70c0296721}; !- Handle

OS:SpaceType,
  {95799dfb-4ce0-41aa-ae32-88c054016d22}, !- Handle
  Lecture Hall,                           !- Name
  ,                                       !- Default Construction Set Name
  {672042ff-219e-45f6-abf5-3c5dd7681a1b}, !- Default Schedule Set Name
  {11aadf41-7f10-4a69-8f54-5d044bea4448}, !- Group Rendering Name
  {fc9d7e5b-8591-4e29-844e-a25d7bbdb220}, !- Design Specification Outdoor Air Object Name
  ,                                       !- Standards Template
  SecondarySchool,                        !- Standards Building Type
  Auditorium;                             !- Standards Space Type

OS:Rendering:Color,
  {11aadf41-7f10-4a69-8f54-5d044bea4448}, !- Handle
  Rendering Color 1,                      !- Name
  230,                                    !- Rendering Red Value
  196,                                    !- Rendering Green Value
  120;                                    !- Rendering Blue Value

OS:DefaultScheduleSet,
  {672042ff-219e-45f6-abf5-3c5dd7681a1b}, !- Handle
  Lecture Hall Schedule Set,              !- Name
  ,                                       !- Hours of Operation Schedule Name
  {76ed66c9-a5fd-40c8-8d2e-0a1155cce2c2}, !- Number of People Schedule Name
  {8b16388c-a49b-4c00-a4f9-e786af0c818b}, !- People Activity Level Schedule Name
  {ce8253b4-453e-4bb9-b4cf-3e5231c8f69a}, !- Lighting Schedule Name
  {b8e9336e-77aa-4c8b-ae6c-cfe7236b2155}, !- Electric Equipment Schedule Name
  ,                                       !- Gas Equipment Schedule Name
  ,                                       !- Hot Water Equipment Schedule Name
  {962307f3-7394-444b-8673-9af5b048b4e2}, !- Infiltration Schedule Name
  ,                                       !- Steam Equipment Schedule Name
  ;                                       !- Other Equipment Schedule Name

OS:Lights:Definition,
  {b8adeb09-63d4-48d5-a378-995d6e814d4d}, !- Handle
  Lecture Hall Lights Definition,         !- Name
  Watts/Area,                             !- Design Level Calculation Method
  ,                                       !- Lighting Level {W}
  12.9166925000517,                       !- Watts per Space Floor Area {W/m2}
  ,                                       !- Watts per Person {W/person}
  0.37,                                   !- Fraction Radiant
  0.2;                                    !- Fraction Visible

OS:Lights,
  {3b868269-3cfc-4b28-b12d-931f0ba2522a}, !- Handle
  Lecture Hall Lights,                    !- Name
  {b8adeb09-63d4-48d5-a378-995d6e814d4d}, !- Lights Definition Name
  {95799dfb-4ce0-41aa-ae32-88c054016d22}; !- Space or SpaceType Name

OS:ScheduleTypeLimits,
  {dc01b527-3ead-4ca0-9cba-1bd6f237a627}, ! Handle
  Fraction,                               ! Name
  0,                                      ! Lower Limit Value
  1,                                      ! Upper Limit Value
  CONTINUOUS;                             ! Numeric Type

OS:DesignSpecification:OutdoorAir,
  {fc9d7e5b-8591-4e29-844e-a25d7bbdb220}, !- Handle
  Lecture Hall Ventilation,               !- Name
  Sum,                                    !- Outdoor Air Method
  0.007079211648,                         !- Outdoor Air Flow per Person {m3/s-person}
  ,                                       !- Outdoor Air Flow per Floor Area {m3/s-m2}
  ,                                       !- Outdoor Air Flow Rate {m3/s}
  ,                                       !- Outdoor Air Flow Air Changes per Hour {1/hr}
  ;                                       !- Outdoor Air Flow Rate Fraction Schedule Name

OS:People:Definition,
  {6f5dcbd3-439b-4754-af96-064ea9fd1773}, !- Handle
  Lecture Hall People Definition,         !- Name
  People/Area,                            !- Number of People Calculation Method
  ,                                       !- Number of People {people}
  0.901380622205689,                      !- People per Space Floor Area {person/m2}
  ,                                       !- Space Floor Area per Person {m2/person}
  0.3;                                    !- Fraction Radiant

OS:People,
  {d2e861d6-f7ac-4e61-81f5-b442e95eac2e}, !- Handle
  Lecture Hall People,                    !- Name
  {6f5dcbd3-439b-4754-af96-064ea9fd1773}, !- People Definition Name
  {95799dfb-4ce0-41aa-ae32-88c054016d22}; !- Space or SpaceType Name

OS:Schedule:Ruleset,
  {8b16388c-a49b-4c00-a4f9-e786af0c818b}, ! Handle
  Activity,                               ! Name
  {76c7fef2-2b23-40b2-887a-02ebafbbc8d9}, ! Schedule Type Limits Name
  {fae208e7-2b48-4d16-8583-075630295c0c}, ! Default Day Schedule Name
  {596b493c-80d7-4b57-93be-c685567f5621}, ! Summer Design Day Schedule Name
  {a3e83fa3-f24c-49bb-942f-5ca71a77da26}; ! Winter Design Day Schedule Name

OS:ScheduleTypeLimits,
  {76c7fef2-2b23-40b2-887a-02ebafbbc8d9}, !- Handle
  ActivityLevel 2,                        !- Name
  0,                                      !- Lower Limit Value
  ,                                       !- Upper Limit Value
  Continuous,                             !- Numeric Type
  ActivityLevel;                          !- Unit Type

OS:Schedule:Day,
  {fae208e7-2b48-4d16-8583-075630295c0c}, ! Handle
  SecondarySchool Activity Default Schedule, ! Name
  {76c7fef2-2b23-40b2-887a-02ebafbbc8d9}, ! Schedule Type Limits Name
  ,                                       ! Interpolate to Timestep
  24,                                     !- Hour 1
  0,                                      !- Minute 1
  120;                                    !- Value Until Time 1

OS:Schedule:Day,
  {596b493c-80d7-4b57-93be-c685567f5621}, ! Handle
  SecondarySchool Activity Summer Design Day, ! Name
  {76c7fef2-2b23-40b2-887a-02ebafbbc8d9}, ! Schedule Type Limits Name
  ,                                       ! Interpolate to Timestep
  24,                                     ! Hour 1
  0,                                      ! Minute 1
  120;                                    ! Value Until Time 1

OS:Schedule:Day,
  {a3e83fa3-f24c-49bb-942f-5ca71a77da26}, ! Handle
  SecondarySchool Activity Winter Design Day, ! Name
  {76c7fef2-2b23-40b2-887a-02ebafbbc8d9}, ! Schedule Type Limits Name
  ,                                       ! Interpolate to Timestep
  24,                                     ! Hour 1
  0,                                      ! Minute 1
  120;                                    ! Value Until Time 1

OS:SpaceInfiltration:DesignFlowRate,
  {950d22c5-be5f-4a84-989f-b065100fb8b0}, !- Handle
  Lecture Hall Infiltration,              !- Name
  {95799dfb-4ce0-41aa-ae32-88c054016d22}, !- Space or SpaceType Name
  ,                                       !- Schedule Name
  Flow/ExteriorArea,                      !- Design Flow Rate Calculation Method
  ,                                       !- Design Flow Rate {m3/s}
  ,                                       !- Flow per Space Floor Area {m3/s-m2}
  0.001133856,                            !- Flow per Exterior Surface Area {m3/s-m2}
  ,                                       !- Air Changes per Hour {1/hr}
  ,                                       !- Constant Term Coefficient
  ,                                       !- Temperature Term Coefficient
  ,                                       !- Velocity Term Coefficient
  ;                                       !- Velocity Squared Term Coefficient

OS:Schedule:Ruleset,
  {962307f3-7394-444b-8673-9af5b048b4e2}, ! Handle
  Infil,                                  ! Name
  {dc01b527-3ead-4ca0-9cba-1bd6f237a627}, ! Schedule Type Limits Name
  {d91c9ef9-11a2-4874-8af4-7a478248cb6c}, ! Default Day Schedule Name
  {8b4c5bd2-82cb-486f-bbf1-3ce8098f9cd5}, ! Summer Design Day Schedule Name
  {618ea5e9-cc20-400b-8f6f-733c74d133bc}; ! Winter Design Day Schedule Name

OS:Schedule:Day,
  {d91c9ef9-11a2-4874-8af4-7a478248cb6c}, ! Handle
  SecondarySchool Infil Default Schedule, ! Name
  {dc01b527-3ead-4ca0-9cba-1bd6f237a627}, ! Schedule Type Limits Name
  ,                                       ! Interpolate to Timestep
  7,                                      !- Hour 1
  0,                                      !- Minute 1
  1,                                      !- Value Until Time 1
  21,                                     !- Hour 2
  0,                                      !- Minute 2
  0.5,                                    !- Value Until Time 2
  24,                                     !- Hour 3
  0,                                      !- Minute 3
  1;                                      !- Value Until Time 3

OS:Schedule:Day,
  {8b4c5bd2-82cb-486f-bbf1-3ce8098f9cd5}, ! Handle
  SecondarySchool Infil Summer Design Day, ! Name
  {dc01b527-3ead-4ca0-9cba-1bd6f237a627}, ! Schedule Type Limits Name
  ,                                       ! Interpolate to Timestep
  7,                                      ! Hour 1
  0,                                      ! Minute 1
  1,                                      ! Value Until Time 1
  21,                                     ! Hour 2
  0,                                      ! Minute 2
  0.5,                                    ! Value Until Time 2
  24,                                     ! Hour 3
  0,                                      ! Minute 3
  1;                                      ! Value Until Time 3

OS:Schedule:Day,
  {618ea5e9-cc20-400b-8f6f-733c74d133bc}, ! Handle
  SecondarySchool Infil Winter Design Day, ! Name
  {dc01b527-3ead-4ca0-9cba-1bd6f237a627}, ! Schedule Type Limits Name
  ,                                       ! Interpolate to Timestep
  7,                                      ! Hour 1
  0,                                      ! Minute 1
  1,                                      ! Value Until Time 1
  21,                                     ! Hour 2
  0,                                      ! Minute 2
  0.5,                                    ! Value Until Time 2
  24,                                     ! Hour 3
  0,                                      ! Minute 3
  1;                                      ! Value Until Time 3

OS:ElectricEquipment:Definition,
  {c7dfb465-82e9-4e11-ae9e-cf7d6a1f5ea9}, !- Handle
  Lecture Hall Electric Equipment Definition, !- Name
  Watts/Area,                             !- Design Level Calculation Method
  ,                                       !- Design Level {W}
  10.7639104167097,                       !- Watts per Space Floor Area {W/m2}
  ,                                       !- Watts per Person {W/person}
  ,                                       !- Fraction Latent
  0.5;                                    !- Fraction Radiant

OS:ElectricEquipment,
  {c410f7be-f1d6-4910-a06a-7bc960f926fb}, !- Handle
  Lecture Hall Electric Equipment,        !- Name
  {c7dfb465-82e9-4e11-ae9e-cf7d6a1f5ea9}, !- Electric Equipment Definition Name
  {95799dfb-4ce0-41aa-ae32-88c054016d22}; !- Space or SpaceType Name

OS:ThermostatSetpoint:DualSetpoint,
  {88c58b0f-a013-4984-9100-a5e5164547ab}, !- Handle
  DOE Ref Pre-1980 - SecSchl - Auditorium Thermostat, !- Name
  {3e73062f-9d72-4288-8439-54bc181ebf5a}, !- Heating Setpoint Temperature Schedule Name
  {b3db3d05-22e0-4660-bb2a-737f74a15357}; !- Cooling Setpoint Temperature Schedule Name

OS:Schedule:Ruleset,
  {3e73062f-9d72-4288-8439-54bc181ebf5a}, ! Handle
  Global HtgSetp,                         ! Name
  {6c626137-4671-4269-bd70-f4a8bb152955}, ! Schedule Type Limits Name
  {d82c5509-d18d-4737-8c0c-583a380e36ee}, ! Default Day Schedule Name
  {6f60c1dc-bfcf-49b7-ab5f-52867aba4062}, ! Summer Design Day Schedule Name
  {d3fd02ff-ad29-4496-ba4d-16bc04841766}; ! Winter Design Day Schedule Name

OS:ScheduleTypeLimits,
  {6c626137-4671-4269-bd70-f4a8bb152955}, !- Handle
  Temperature 22,                         !- Name
  ,                                       !- Lower Limit Value
  ,                                       !- Upper Limit Value
  Continuous,                             !- Numeric Type
  Temperature;                            !- Unit Type

OS:Schedule:Day,
  {d82c5509-d18d-4737-8c0c-583a380e36ee}, ! Handle
  SecondarySchool HtgSetp Default Schedule, ! Name
  {6c626137-4671-4269-bd70-f4a8bb152955}, ! Schedule Type Limits Name
  ,                                       ! Interpolate to Timestep
  7,                                      !- Hour 1
  0,                                      !- Minute 1
  17.7777777777778,                       !- Value Until Time 1
  21,                                     !- Hour 2
  0,                                      !- Minute 2
  20.5555555555556,                       !- Value Until Time 2
  24,                                     !- Hour 3
  0,                                      !- Minute 3
  17.7777777777778;                       !- Value Until Time 3

OS:Schedule:Day,
  {6f60c1dc-bfcf-49b7-ab5f-52867aba4062}, ! Handle
  SecondarySchool HtgSetp Summer Design Day, ! Name
  {6c626137-4671-4269-bd70-f4a8bb152955}, ! Schedule Type Limits Name
  ,                                       ! Interpolate to Timestep
  24,                                     ! Hour 1
  0,                                      ! Minute 1
  16;                                     ! Value Until Time 1

OS:Schedule:Day,
  {d3fd02ff-ad29-4496-ba4d-16bc04841766}, ! Handle
  SecondarySchool HtgSetp Winter Design Day, ! Name
  {6c626137-4671-4269-bd70-f4a8bb152955}, ! Schedule Type Limits Name
  ,                                       ! Interpolate to Timestep
  24,                                     ! Hour 1
  0,                                      ! Minute 1
  21;                                     ! Value Until Time 1

OS:Schedule:Ruleset,
  {b3db3d05-22e0-4660-bb2a-737f74a15357}, ! Handle
  Global ClgSetp,                         ! Name
  {95d061a9-c995-45bf-83ab-ff5030677b6d}, ! Schedule Type Limits Name
  {3ce59423-5a73-4b76-af9e-a08316ac0421}, ! Default Day Schedule Name
  {67f9afe4-33ee-4707-a54f-16502bc92c14}, ! Summer Design Day Schedule Name
  {006a26e8-138d-4c0e-94a3-8d7b284331c6}; ! Winter Design Day Schedule Name

OS:ScheduleTypeLimits,
  {95d061a9-c995-45bf-83ab-ff5030677b6d}, !- Handle
  Temperature 21,                         !- Name
  ,                                       !- Lower Limit Value
  ,                                       !- Upper Limit Value
  Continuous,                             !- Numeric Type
  Temperature;                            !- Unit Type

OS:Schedule:Day,
  {3ce59423-5a73-4b76-af9e-a08316ac0421}, ! Handle
  SecondarySchool ClgSetp Default Schedule, ! Name
  {95d061a9-c995-45bf-83ab-ff5030677b6d}, ! Schedule Type Limits Name
  ,                                       ! Interpolate to Timestep
  7,                                      !- Hour 1
  0,                                      !- Minute 1
  29.4444444444445,                       !- Value Until Time 1
  21,                                     !- Hour 2
  0,                                      !- Minute 2
  23.3333333333334,                       !- Value Until Time 2
  24,                                     !- Hour 3
  0,                                      !- Minute 3
  29.4444444444445;                       !- Value Until Time 3

OS:Schedule:Day,
  {67f9afe4-33ee-4707-a54f-16502bc92c14}, ! Handle
  SecondarySchool ClgSetp Summer Design Day, ! Name
  {95d061a9-c995-45bf-83ab-ff5030677b6d}, ! Schedule Type Limits Name
  ,                                       ! Interpolate to Timestep
  24,                                     !- Hour 1
  0,                                      !- Minute 1
  22.2222222222223;                       !- Value Until Time 1

OS:Schedule:Day,
  {006a26e8-138d-4c0e-94a3-8d7b284331c6}, ! Handle
  SecondarySchool ClgSetp Winter Design Day, ! Name
  {95d061a9-c995-45bf-83ab-ff5030677b6d}, ! Schedule Type Limits Name
  ,                                       ! Interpolate to Timestep
  24,                                     ! Hour 1
  0,                                      ! Minute 1
  27;                                     ! Value Until Time 1

OS:Rendering:Color,
  {4269428e-7f55-42e8-b868-cde191682ea3}, !- Handle
  Rendering Color 2,                      !- Name
  31,                                     !- Rendering Red Value
  169,                                    !- Rendering Green Value
  34;                                     !- Rendering Blue Value

OS:DesignSpecification:OutdoorAir,
  {b9ccc30f-b246-4d5f-93dd-86b9cb04eb5b}, !- Handle
  DOE Ref Pre-1980 - SecSchl - Cafeteria Ventilation, !- Name
  Sum,                                    !- Outdoor Air Method
  0.009438948864,                         !- Outdoor Air Flow per Person {m3/s-person}
  ,                                       !- Outdoor Air Flow per Floor Area {m3/s-m2}
  ,                                       !- Outdoor Air Flow Rate {m3/s}
  ,                                       !- Outdoor Air Flow Air Changes per Hour {1/hr}
  ;                                       !- Outdoor Air Flow Rate Fraction Schedule Name

OS:ThermostatSetpoint:DualSetpoint,
  {b2e1ff27-318b-492e-a430-5d62cefb921a}, !- Handle
  DOE Ref Pre-1980 - SecSchl - Cafeteria Thermostat, !- Name
  {3e73062f-9d72-4288-8439-54bc181ebf5a}, !- Heating Setpoint Temperature Schedule Name
  {b3db3d05-22e0-4660-bb2a-737f74a15357}; !- Cooling Setpoint Temperature Schedule Name

OS:SpaceType,
  {5b229a3a-cadd-4d44-94c5-b6d62873960b}, !- Handle
  Classroom,                              !- Name
  ,                                       !- Default Construction Set Name
  {0f0989fb-403c-445d-8165-2731fb2d7747}, !- Default Schedule Set Name
  {a63f35f0-1004-4aba-a060-3203bcf5f136}, !- Group Rendering Name
  {0607e866-7a59-4a4b-9385-afdce3e170e4}, !- Design Specification Outdoor Air Object Name
  ,                                       !- Standards Template
  SecondarySchool,                        !- Standards Building Type
  Classroom;                              !- Standards Space Type

OS:Rendering:Color,
  {a63f35f0-1004-4aba-a060-3203bcf5f136}, !- Handle
  Rendering Color 3,                      !- Name
  120,                                    !- Rendering Red Value
  230,                                    !- Rendering Green Value
  199;                                    !- Rendering Blue Value

OS:DefaultScheduleSet,
  {0f0989fb-403c-445d-8165-2731fb2d7747}, !- Handle
  Classroom Schedule Set,                 !- Name
  ,                                       !- Hours of Operation Schedule Name
  {76ed66c9-a5fd-40c8-8d2e-0a1155cce2c2}, !- Number of People Schedule Name
  {8b16388c-a49b-4c00-a4f9-e786af0c818b}, !- People Activity Level Schedule Name
  {ce8253b4-453e-4bb9-b4cf-3e5231c8f69a}, !- Lighting Schedule Name
  {b8e9336e-77aa-4c8b-ae6c-cfe7236b2155}, !- Electric Equipment Schedule Name
  ,                                       !- Gas Equipment Schedule Name
  ,                                       !- Hot Water Equipment Schedule Name
  {962307f3-7394-444b-8673-9af5b048b4e2}, !- Infiltration Schedule Name
  ,                                       !- Steam Equipment Schedule Name
  ;                                       !- Other Equipment Schedule Name

OS:Lights:Definition,
  {04395ae4-b6d6-4919-ad79-b3c0dc9acf85}, !- Handle
  Classroom Lights Definition,            !- Name
  Watts/Area,                             !- Design Level Calculation Method
  ,                                       !- Lighting Level {W}
  11.8403014583807,                       !- Watts per Space Floor Area {W/m2}
  ,                                       !- Watts per Person {W/person}
  0.37,                                   !- Fraction Radiant
  0.2;                                    !- Fraction Visible

OS:Lights,
  {22fb73bc-cc37-4963-92f3-a3716b6270d3}, !- Handle
  Classroom Lights,                       !- Name
  {04395ae4-b6d6-4919-ad79-b3c0dc9acf85}, !- Lights Definition Name
  {5b229a3a-cadd-4d44-94c5-b6d62873960b}; !- Space or SpaceType Name

OS:DesignSpecification:OutdoorAir,
  {0607e866-7a59-4a4b-9385-afdce3e170e4}, !- Handle
  Classroom Ventilation,                  !- Name
  Sum,                                    !- Outdoor Air Method
  0.007079211648,                         !- Outdoor Air Flow per Person {m3/s-person}
  ,                                       !- Outdoor Air Flow per Floor Area {m3/s-m2}
  ,                                       !- Outdoor Air Flow Rate {m3/s}
  ,                                       !- Outdoor Air Flow Air Changes per Hour {1/hr}
  ;                                       !- Outdoor Air Flow Rate Fraction Schedule Name

OS:People:Definition,
  {891031b6-2255-445f-b95b-4f646e04436b}, !- Handle
  Classroom People Definition,            !- Name
  People/Area,                            !- Number of People Calculation Method
  ,                                       !- Number of People {people}
  0.249937999876,                         !- People per Space Floor Area {person/m2}
  ,                                       !- Space Floor Area per Person {m2/person}
  0.3;                                    !- Fraction Radiant

OS:People,
  {1a281dec-3df2-4e95-b99c-53a881940843}, !- Handle
  Classroom People,                       !- Name
  {891031b6-2255-445f-b95b-4f646e04436b}, !- People Definition Name
  {5b229a3a-cadd-4d44-94c5-b6d62873960b}; !- Space or SpaceType Name
