
OS:Version,
  {7e37168c-b8d3-49b6-b7e7-c57d54c0b9b4}, !- Handle
  3.1.0;                                  !- Version Identifier

OS:Material,
  {ccfcb8e9-9017-440c-9b88-7a9314acfe34}, !- Handle
  G05 25mm wood,                          !- Name
  MediumSmooth,                           !- Roughness
  0.0254,                                 !- Thickness {m}
  0.15,                                   !- Conductivity {W/m-K}
  608,                                    !- Density {kg/m3}
  1630;                                   !- Specific Heat {J/kg-K}

OS:Material,
  {07a812d6-9e8d-483f-a7bd-f580b48eb843}, !- Handle
  Roof Membrane,                          !- Name
  MediumSmooth,                           !- Roughness
  0.0095,                                 !- Thickness {m}
  0.16,                                   !- Conductivity {W/m-K}
  1121.29,                                !- Density {kg/m3}
  1460;                                   !- Specific Heat {J/kg-K}

OS:Material,
  {7dcb3b52-321e-4448-ae04-faec804dbe23}, !- Handle
  I01 25mm insulation board,              !- Name
  Smooth,                                 !- Roughness
  0.0254,                                 !- Thickness {m}
  0.03,                                   !- Conductivity {W/m-K}
  43,                                     !- Density {kg/m3}
  1210;                                   !- Specific Heat {J/kg-K}

OS:Material,
  {db81353a-25e3-4297-a272-00e802e240b9}, !- Handle
  Roof Insulation [18],                   !- Name
  Smooth,                                 !- Roughness
  0.1693,                                 !- Thickness {m}
  0.049,                                  !- Conductivity {W/m-K}
  265,                                    !- Density {kg/m3}
  836.800000000001;                       !- Specific Heat {J/kg-K}

OS:Material,
  {b72c6b56-5a99-4f48-9613-5f3d7bb6ea62}, !- Handle
  8IN Concrete HW,                        !- Name
  Rough,                                  !- Roughness
  0.2033,                                 !- Thickness {m}
  1.72959999999999,                       !- Conductivity {W/m-K}
  2242.99999999999,                       !- Density {kg/m3}
  836.999999999999;                       !- Specific Heat {J/kg-K}

OS:Material,
  {8ee888aa-e575-4ed2-92ed-e2d824d5b397}, !- Handle
  MAT-CC05 4 HW CONCRETE,                 !- Name
  Rough,                                  !- Roughness
  0.1016,                                 !- Thickness {m}
  1.311,                                  !- Conductivity {W/m-K}
  2240,                                   !- Density {kg/m3}
  836.800000000001;                       !- Specific Heat {J/kg-K}

OS:Material,
  {551bdc78-f0ae-4112-8f97-d99ea785b85b}, !- Handle
  1/2IN Gypsum,                           !- Name
  MediumRough,                            !- Roughness
  0.0127,                                 !- Thickness {m}
  0.16,                                   !- Conductivity {W/m-K}
  784.9,                                  !- Density {kg/m3}
  830.000000000001;                       !- Specific Heat {J/kg-K}

OS:Material:NoMass,
  {fbadd01a-2075-484b-bbad-a3623b36d978}, !- Handle
  CP02 CARPET PAD,                        !- Name
  Smooth,                                 !- Roughness
  0.1;                                    !- Thermal Resistance {m2-K/W}

OS:Material,
  {e8b46d44-0561-4bee-ad74-c71b4aa2d1cc}, !- Handle
  1IN Stucco,                             !- Name
  MediumRough,                            !- Roughness
  0.0253,                                 !- Thickness {m}
  0.691799999999999,                      !- Conductivity {W/m-K}
  1858,                                   !- Density {kg/m3}
  836.999999999999;                       !- Specific Heat {J/kg-K}

OS:Material,
  {e5697c3f-3913-4411-967e-805e740ff104}, !- Handle
  Metal Decking,                          !- Name
  Smooth,                                 !- Roughness
  0.0015,                                 !- Thickness {m}
  45.006,                                 !- Conductivity {W/m-K}
  7680,                                   !- Density {kg/m3}
  418.4;                                  !- Specific Heat {J/kg-K}

OS:Material,
  {a3b3a5ec-9085-466d-b314-49ec86666988}, !- Handle
  F16 Acoustic tile,                      !- Name
  MediumSmooth,                           !- Roughness
  0.0191,                                 !- Thickness {m}
  0.06,                                   !- Conductivity {W/m-K}
  368,                                    !- Density {kg/m3}
  590.000000000002;                       !- Specific Heat {J/kg-K}

OS:Material:NoMass,
  {03424442-a63d-41ae-8f34-71eb4267f7e6}, !- Handle
  F05 Ceiling air space resistance,       !- Name
  Smooth,                                 !- Roughness
  0.18;                                   !- Thermal Resistance {m2-K/W}

OS:Material,
  {a83b56e6-56a8-43cc-8389-c165b2771c57}, !- Handle
  Wall Insulation [31],                   !- Name
  VerySmooth,                             !- Roughness
  0.0337000000000001,                     !- Thickness {m}
  0.0432,                                 !- Conductivity {W/m-K}
  91,                                     !- Density {kg/m3}
  836.999999999999;                       !- Specific Heat {J/kg-K}

OS:Material,
  {03aa2a1f-594a-42a8-9f2a-21a2105e51e3}, !- Handle
  G01a 19mm gypsum board,                 !- Name
  MediumSmooth,                           !- Roughness
  0.019,                                  !- Thickness {m}
  0.16,                                   !- Conductivity {W/m-K}
  800,                                    !- Density {kg/m3}
  1090;                                   !- Specific Heat {J/kg-K}

OS:Material:NoMass,
  {57a2a952-4bbc-487c-a9ae-863600489c8e}, !- Handle
  F04 Wall air space resistance,          !- Name
  Smooth,                                 !- Roughness
  0.15;                                   !- Thermal Resistance {m2-K/W}

OS:Material,
  {11dcc4c9-a94c-43b4-ac6c-7ff295535a72}, !- Handle
  F08 Metal surface,                      !- Name
  MediumSmooth,                           !- Roughness
  0.0008,                                 !- Thickness {m}
  45.2800000000001,                       !- Conductivity {W/m-K}
  7823.99999999999,                       !- Density {kg/m3}
  500;                                    !- Specific Heat {J/kg-K}

OS:Material,
  {30e764be-20b8-42b8-87ee-a5227df00897}, !- Handle
  M11 100mm lightweight concrete,         !- Name
  Rough,                                  !- Roughness
  0.1016,                                 !- Thickness {m}
  0.53,                                   !- Conductivity {W/m-K}
  1280,                                   !- Density {kg/m3}
  840.000000000002;                       !- Specific Heat {J/kg-K}

OS:Material,
  {faed2ccb-e796-466a-891c-9fe79b91271b}, !- Handle
  Wall Insulation [40],                   !- Name
  VerySmooth,                             !- Roughness
  0.0793999999999999,                     !- Thickness {m}
  0.0432,                                 !- Conductivity {W/m-K}
  91,                                     !- Density {kg/m3}
  836.999999999999;                       !- Specific Heat {J/kg-K}

OS:Material,
  {4b5f339a-8b55-4bc5-9054-51b42896c862}, !- Handle
  Roof Insulation [21],                   !- Name
  Smooth,                                 !- Roughness
  0.2105,                                 !- Thickness {m}
  0.049,                                  !- Conductivity {W/m-K}
  265,                                    !- Density {kg/m3}
  836.800000000001;                       !- Specific Heat {J/kg-K}

OS:Construction,
  {f0f76961-d053-48cd-85db-2f9c4ee8c05b}, !- Handle
  Interior Partition,                     !- Name
  {7d2c1db7-0409-4a2a-ae90-6de45ed36b62}, !- Surface Rendering Name
  {ccfcb8e9-9017-440c-9b88-7a9314acfe34}; !- Layer 1

OS:Construction,
  {55ca07df-4c30-499b-ab91-45db7c084cc7}, !- Handle
  ExtSlabCarpet 4in ClimateZone 1-8,      !- Name
  {8ed360fe-4e76-40ff-bc8a-e593223a83d9}, !- Surface Rendering Name
  {8ee888aa-e575-4ed2-92ed-e2d824d5b397}; !- Layer 1

OS:Construction,
  {0fa8148c-4cb7-455e-a694-7b22f75446ca}, !- Handle
  ASHRAE 189.1-2009 ExtWall Mass ClimateZone 1, !- Name
  {462bd1e3-4df8-4aa5-af76-cc7fd64c94fe}, !- Surface Rendering Name
  {e8b46d44-0561-4bee-ad74-c71b4aa2d1cc}; !- Layer 1

OS:Construction,
  {6a0fa199-aa06-4ecb-aa5d-c3272a6ada83}, !- Handle
  ASHRAE 189.1-2009 ExtRoof IEAD ClimateZone 1, !- Name
  {fecb3bb1-5a80-4521-babf-dba60f8d5f3d}, !- Surface Rendering Name
  {07a812d6-9e8d-483f-a7bd-f580b48eb843}; !- Layer 1

OS:Construction,
  {d83a0a81-3114-4777-b9ce-328df0d8713c}, !- Handle
  Interior Floor,                         !- Name
  {0dfd3ad0-acd4-43ab-bcbd-2812c0515acf}, !- Surface Rendering Name
  {a3b3a5ec-9085-466d-b314-49ec86666988}; !- Layer 1

OS:Construction,
  {e23d6675-2f97-460b-b83b-6f2ffaf53517}, !- Handle
  Interior Wall,                          !- Name
  {8f7ee4d3-6a4b-406c-b540-49c120ef2a16}, !- Surface Rendering Name
  {03aa2a1f-594a-42a8-9f2a-21a2105e51e3}; !- Layer 1

OS:Construction,
  {81d8234e-c171-4233-961c-31b286f54144}, !- Handle
  Interior Ceiling,                       !- Name
  {8aaa9b9e-0700-412b-944d-e09da5aea93b}, !- Surface Rendering Name
  {30e764be-20b8-42b8-87ee-a5227df00897}; !- Layer 1

OS:Construction,
  {3a630500-00d1-4ee4-8b9b-fd5137dbaa9a}, !- Handle
  Exterior Door,                          !- Name
  {1a940575-36a3-4fd5-9cb3-5254d89c5562}, !- Surface Rendering Name
  {11dcc4c9-a94c-43b4-ac6c-7ff295535a72}; !- Layer 1

OS:Construction,
  {86834ab1-d605-4539-9684-93b13e5cd5a2}, !- Handle
  Interior Door,                          !- Name
  {00a466cd-fc17-4e2d-b9a3-354943bba815}, !- Surface Rendering Name
  {ccfcb8e9-9017-440c-9b88-7a9314acfe34}; !- Layer 1

OS:Construction,
  {58392958-56b9-4baa-946b-50aca6f4137b}, !- Handle
  ASHRAE 189.1-2009 ExtWall Mass ClimateZone 5, !- Name
  {0433fe17-6cd4-45f8-b4ba-73f5be438e1c}, !- Surface Rendering Name
  {e8b46d44-0561-4bee-ad74-c71b4aa2d1cc}; !- Layer 1

OS:Construction,
  {8858e46d-6e09-4a14-8b8e-ad7719950b06}, !- Handle
  ASHRAE 189.1-2009 ExtRoof IEAD ClimateZone 2-5, !- Name
  {2fb3f438-90d3-4886-80d0-22ca3deb0bdb}, !- Surface Rendering Name
  {07a812d6-9e8d-483f-a7bd-f580b48eb843}; !- Layer 1

OS:Construction,
  {5e7451b1-069b-4043-9754-f4644eb6bc62}, !- Handle
  ASHRAE 189.1-2009 ExtWindow ClimateZone 1, !- Name
  {d0995351-8eab-42fd-93a9-2be832345103}, !- Surface Rendering Name
  {dd94d40a-f88d-4815-b287-86fd93a7301f}; !- Layer 1

OS:Construction,
  {d9165ada-cd5b-434c-9bfa-d7c3ed9a5e3b}, !- Handle
  Interior Window,                        !- Name
  {79d3082b-0285-4a07-8666-3c244561be38}, !- Surface Rendering Name
  {4bd6f61a-087f-4c31-9670-1a3237b43ffa}; !- Layer 1

OS:Construction,
  {5c80ecd8-6162-45b1-9656-8bf40f0133f7}, !- Handle
  ASHRAE 189.1-2009 ExtWindow ClimateZone 4-5, !- Name
  {d661ff61-169e-4d9f-accd-c92027a1db43}, !- Surface Rendering Name
  {3fa6ef69-ee61-4b64-bd2a-4b37fff58c2d}; !- Layer 1

OS:ThermalZone,
  {f1280c9b-a4a7-4ced-bcb5-f2a8a8d28bf7}, !- Handle
  West Stairways,                         !- Name
  ,                                       !- Multiplier
  ,                                       !- Ceiling Height {m}
  ,                                       !- Volume {m3}
  ,                                       !- Floor Area {m2}
  ,                                       !- Zone Inside Convection Algorithm
  ,                                       !- Zone Outside Convection Algorithm
  ,                                       !- Zone Conditioning Equipment List Name
  {71d6cffe-dad9-4381-ba3c-79aa32b64600}, !- Zone Air Inlet Port List
  {0e80449e-9c1b-4bb8-a046-3a305d396c9c}, !- Zone Air Exhaust Port List
  {9a191d37-0408-4970-a4ff-f34514f584dd}, !- Zone Air Node Name
  {ac2b209e-ad65-415c-b2f6-91660750035e}, !- Zone Return Air Port List
  ,                                       !- Primary Daylighting Control Name
  ,                                       !- Fraction of Zone Controlled by Primary Daylighting Control
  ,                                       !- Secondary Daylighting Control Name
  ,                                       !- Fraction of Zone Controlled by Secondary Daylighting Control
  ,                                       !- Illuminance Map Name
  {eb3aa6d3-2ac9-4a5f-8ad5-099659d7572b}, !- Group Rendering Name
  {ed317be2-ee5f-4727-a428-2a8918b97f6e}, !- Thermostat Name
  No;                                     !- Use Ideal Air Loads

OS:PortList,
  {ac2b209e-ad65-415c-b2f6-91660750035e}, !- Handle
  Port List 1,                            !- Name
  {f1280c9b-a4a7-4ced-bcb5-f2a8a8d28bf7}, !- HVAC Component
  {100bc8ca-5ac7-499a-b0d2-002e1a79a7ea}; !- Port 1

OS:Node,
  {a2c835b0-6e8e-485a-8f58-8ddf7af5cb77}, !- Handle
  {6bd8e921-a5ea-4e7f-bfe3-e06f15481fb1}, !- Name
  {9a191d37-0408-4970-a4ff-f34514f584dd}, !- Inlet Port
  ;                                       !- Outlet Port

OS:Connection,
  {9a191d37-0408-4970-a4ff-f34514f584dd}, !- Handle
  {df2f5b9b-27b4-4e7f-9c4e-0f1be8b1dd92}, !- Name
  {f1280c9b-a4a7-4ced-bcb5-f2a8a8d28bf7}, !- Source Object
  11,                                     !- Outlet Port
  {a2c835b0-6e8e-485a-8f58-8ddf7af5cb77}, !- Target Object
  2;                                      !- Inlet Port

OS:PortList,
  {71d6cffe-dad9-4381-ba3c-79aa32b64600}, !- Handle
  {1407c8be-b1c3-48a3-9568-dd4b496d7b1e}, !- Name
  {f1280c9b-a4a7-4ced-bcb5-f2a8a8d28bf7}, !- HVAC Component
  {0fd89498-3034-4ce7-8ad9-fc9dc3992b6f}; !- Port 1

OS:PortList,
  {0e80449e-9c1b-4bb8-a046-3a305d396c9c}, !- Handle
  {61f624b7-9e7f-4c49-965b-afa332687130}, !- Name
  {f1280c9b-a4a7-4ced-bcb5-f2a8a8d28bf7}; !- HVAC Component

OS:Sizing:Zone,
  {34cf80b1-af17-475c-bc92-31673934c6d2}, !- Handle
  {f1280c9b-a4a7-4ced-bcb5-f2a8a8d28bf7}, !- Zone or ZoneList Name
  SupplyAirTemperature,                   !- Zone Cooling Design Supply Air Temperature Input Method
  12.8,                                   !- Zone Cooling Design Supply Air Temperature {C}
  11.11,                                  !- Zone Cooling Design Supply Air Temperature Difference {deltaC}
  SupplyAirTemperature,                   !- Zone Heating Design Supply Air Temperature Input Method
  40,                                     !- Zone Heating Design Supply Air Temperature {C}
  11.11,                                  !- Zone Heating Design Supply Air Temperature Difference {deltaC}
  0.0085,                                 !- Zone Cooling Design Supply Air Humidity Ratio {kg-H2O/kg-air}
  0.008,                                  !- Zone Heating Design Supply Air Humidity Ratio {kg-H2O/kg-air}
  ,                                       !- Zone Heating Sizing Factor
  ,                                       !- Zone Cooling Sizing Factor
  DesignDay,                              !- Cooling Design Air Flow Method
  ,                                       !- Cooling Design Air Flow Rate {m3/s}
  ,                                       !- Cooling Minimum Air Flow per Zone Floor Area {m3/s-m2}
  ,                                       !- Cooling Minimum Air Flow {m3/s}
  ,                                       !- Cooling Minimum Air Flow Fraction
  DesignDay,                              !- Heating Design Air Flow Method
  ,                                       !- Heating Design Air Flow Rate {m3/s}
  ,                                       !- Heating Maximum Air Flow per Zone Floor Area {m3/s-m2}
  ,                                       !- Heating Maximum Air Flow {m3/s}
  ,                                       !- Heating Maximum Air Flow Fraction
  No,                                     !- Account for Dedicated Outdoor Air System
  NeutralSupplyAir,                       !- Dedicated Outdoor Air System Control Strategy
  autosize,                               !- Dedicated Outdoor Air Low Setpoint Temperature for Design {C}
  autosize;                               !- Dedicated Outdoor Air High Setpoint Temperature for Design {C}

OS:ZoneHVAC:EquipmentList,
  {d6ee37d1-05ce-489f-8198-558f64ffc97e}, !- Handle
  {49b9eb02-208d-4212-bea9-90b7de4a77e8}, !- Name
  {f1280c9b-a4a7-4ced-bcb5-f2a8a8d28bf7}, !- Thermal Zone
  ,                                       !- Load Distribution Scheme
  {c80d6a9f-e062-4bd0-83de-fba281bc1c4b}, !- Zone Equipment 1
  1,                                      !- Zone Equipment Cooling Sequence 1
  1,                                      !- Zone Equipment Heating or No-Load Sequence 1
  ,                                       !- Zone Equipment Sequential Cooling Fraction Schedule Name 1
  ,                                       !- Zone Equipment Sequential Heating Fraction Schedule Name 1
  {13c491ad-c01b-4c9d-bf04-e4e42437b7f0}, !- Zone Equipment 2
  2,                                      !- Zone Equipment Cooling Sequence 2
  2,                                      !- Zone Equipment Heating or No-Load Sequence 2
  ,                                       !- Zone Equipment Sequential Cooling Fraction Schedule Name 2
  ;                                       !- Zone Equipment Sequential Heating Fraction Schedule Name 2

OS:ThermalZone,
  {6a907eb7-737f-4bff-8d95-4b5841912a87}, !- Handle
  Basement - North Labs,                  !- Name
  ,                                       !- Multiplier
  ,                                       !- Ceiling Height {m}
  ,                                       !- Volume {m3}
  ,                                       !- Floor Area {m2}
  ,                                       !- Zone Inside Convection Algorithm
  ,                                       !- Zone Outside Convection Algorithm
  ,                                       !- Zone Conditioning Equipment List Name
  {5ecef727-4d5f-49ab-a9c0-967ac6f7cb41}, !- Zone Air Inlet Port List
  {0f5fc358-66d1-4f85-9f15-f7a6d7b093c8}, !- Zone Air Exhaust Port List
  {9918ac60-b5a9-4605-9173-300781c875ac}, !- Zone Air Node Name
  {5dbc4462-b3d8-4b95-b668-5eebcf55dc47}, !- Zone Return Air Port List
  ,                                       !- Primary Daylighting Control Name
  ,                                       !- Fraction of Zone Controlled by Primary Daylighting Control
  ,                                       !- Secondary Daylighting Control Name
  ,                                       !- Fraction of Zone Controlled by Secondary Daylighting Control
  ,                                       !- Illuminance Map Name
  {43292ee7-0591-4d6d-a37a-f5d948ee853d}, !- Group Rendering Name
  {e67f631d-b4fa-44f8-8cf3-3de171d3a7fe}, !- Thermostat Name
  No;                                     !- Use Ideal Air Loads

OS:PortList,
  {5dbc4462-b3d8-4b95-b668-5eebcf55dc47}, !- Handle
  Port List 2,                            !- Name
  {6a907eb7-737f-4bff-8d95-4b5841912a87}, !- HVAC Component
  {37b178c5-8732-441b-b5e3-4271f5979a0d}; !- Port 1

OS:Node,
  {fe627542-e343-4029-83fb-8231d22f4f23}, !- Handle
  {f95ce3e0-d62a-4989-b51d-2fcf9d283ec3}, !- Name
  {9918ac60-b5a9-4605-9173-300781c875ac}, !- Inlet Port
  ;                                       !- Outlet Port

OS:Connection,
  {9918ac60-b5a9-4605-9173-300781c875ac}, !- Handle
  {275d27b6-342b-4225-8977-6e56dab1d99b}, !- Name
  {6a907eb7-737f-4bff-8d95-4b5841912a87}, !- Source Object
  11,                                     !- Outlet Port
  {fe627542-e343-4029-83fb-8231d22f4f23}, !- Target Object
  2;                                      !- Inlet Port

OS:PortList,
  {5ecef727-4d5f-49ab-a9c0-967ac6f7cb41}, !- Handle
  {ff9afb4f-e6eb-45dc-8523-0c2f5d28368e}, !- Name
  {6a907eb7-737f-4bff-8d95-4b5841912a87}, !- HVAC Component
  {dfa64e6c-d028-4364-84ae-d98dff884669}; !- Port 1

OS:PortList,
  {0f5fc358-66d1-4f85-9f15-f7a6d7b093c8}, !- Handle
  {cc1672a0-b957-4b72-b107-6715875e1a0c}, !- Name
  {6a907eb7-737f-4bff-8d95-4b5841912a87}; !- HVAC Component

OS:Sizing:Zone,
  {0b8caa17-64cd-4c29-9b92-5a816cbf600c}, !- Handle
  {6a907eb7-737f-4bff-8d95-4b5841912a87}, !- Zone or ZoneList Name
  SupplyAirTemperature,                   !- Zone Cooling Design Supply Air Temperature Input Method
  12.8,                                   !- Zone Cooling Design Supply Air Temperature {C}
  11.11,                                  !- Zone Cooling Design Supply Air Temperature Difference {deltaC}
  SupplyAirTemperature,                   !- Zone Heating Design Supply Air Temperature Input Method
  40,                                     !- Zone Heating Design Supply Air Temperature {C}
  11.11,                                  !- Zone Heating Design Supply Air Temperature Difference {deltaC}
  0.0085,                                 !- Zone Cooling Design Supply Air Humidity Ratio {kg-H2O/kg-air}
  0.008,                                  !- Zone Heating Design Supply Air Humidity Ratio {kg-H2O/kg-air}
  ,                                       !- Zone Heating Sizing Factor
  ,                                       !- Zone Cooling Sizing Factor
  DesignDay,                              !- Cooling Design Air Flow Method
  ,                                       !- Cooling Design Air Flow Rate {m3/s}
  ,                                       !- Cooling Minimum Air Flow per Zone Floor Area {m3/s-m2}
  ,                                       !- Cooling Minimum Air Flow {m3/s}
  ,                                       !- Cooling Minimum Air Flow Fraction
  DesignDay,                              !- Heating Design Air Flow Method
  ,                                       !- Heating Design Air Flow Rate {m3/s}
  ,                                       !- Heating Maximum Air Flow per Zone Floor Area {m3/s-m2}
  ,                                       !- Heating Maximum Air Flow {m3/s}
  ,                                       !- Heating Maximum Air Flow Fraction
  No,                                     !- Account for Dedicated Outdoor Air System
  NeutralSupplyAir,                       !- Dedicated Outdoor Air System Control Strategy
  autosize,                               !- Dedicated Outdoor Air Low Setpoint Temperature for Design {C}
  autosize;                               !- Dedicated Outdoor Air High Setpoint Temperature for Design {C}

OS:ZoneHVAC:EquipmentList,
  {5e79cba0-ce8b-416d-addf-67c1d3e633f7}, !- Handle
  {83f67bbf-205b-4287-8917-f4a7b6fdafe7}, !- Name
  {6a907eb7-737f-4bff-8d95-4b5841912a87}, !- Thermal Zone
  ,                                       !- Load Distribution Scheme
  {fefa4b47-734e-44c6-be99-72c4eaf6787b}, !- Zone Equipment 1
  1,                                      !- Zone Equipment Cooling Sequence 1
  1,                                      !- Zone Equipment Heating or No-Load Sequence 1
  ,                                       !- Zone Equipment Sequential Cooling Fraction Schedule Name 1
  ;                                       !- Zone Equipment Sequential Heating Fraction Schedule Name 1

OS:ThermalZone,
  {ac16bd61-bc74-486d-9048-f2ba4384300f}, !- Handle
  2nd Floor - East Labs,                  !- Name
  ,                                       !- Multiplier
  ,                                       !- Ceiling Height {m}
  ,                                       !- Volume {m3}
  ,                                       !- Floor Area {m2}
  ,                                       !- Zone Inside Convection Algorithm
  ,                                       !- Zone Outside Convection Algorithm
  ,                                       !- Zone Conditioning Equipment List Name
  {a7af70a2-a72e-49ee-9913-39c21400acb8}, !- Zone Air Inlet Port List
  {757f8c52-781b-4cd2-b735-269719b1ba7b}, !- Zone Air Exhaust Port List
  {8efffec5-8407-47b6-a24c-98195e7b485c}, !- Zone Air Node Name
  {9307109a-5152-490e-af05-29de634fcd5c}, !- Zone Return Air Port List
  ,                                       !- Primary Daylighting Control Name
  ,                                       !- Fraction of Zone Controlled by Primary Daylighting Control
  ,                                       !- Secondary Daylighting Control Name
  ,                                       !- Fraction of Zone Controlled by Secondary Daylighting Control
  ,                                       !- Illuminance Map Name
  {8f8d82d7-3bfb-4d77-9c16-a929428bb579}, !- Group Rendering Name
  {3256e735-bce5-4faf-8dc8-ac4b53c71e31}, !- Thermostat Name
  No;                                     !- Use Ideal Air Loads

OS:PortList,
  {9307109a-5152-490e-af05-29de634fcd5c}, !- Handle
  Port List 3,                            !- Name
  {ac16bd61-bc74-486d-9048-f2ba4384300f}, !- HVAC Component
  {1747c0a4-5f7a-457b-b531-e68f970c6615}; !- Port 1

OS:Node,
  {5999af41-0525-4efe-a125-fce37e1eb63c}, !- Handle
  {197bc9b2-c4a2-4cbb-97dd-cba11f97dfab}, !- Name
  {8efffec5-8407-47b6-a24c-98195e7b485c}, !- Inlet Port
  ;                                       !- Outlet Port

OS:Connection,
  {8efffec5-8407-47b6-a24c-98195e7b485c}, !- Handle
  {4472ec58-9b04-443b-8944-65475a48f918}, !- Name
  {ac16bd61-bc74-486d-9048-f2ba4384300f}, !- Source Object
  11,                                     !- Outlet Port
  {5999af41-0525-4efe-a125-fce37e1eb63c}, !- Target Object
  2;                                      !- Inlet Port

OS:PortList,
  {a7af70a2-a72e-49ee-9913-39c21400acb8}, !- Handle
  {b4713d00-c63b-4e5c-a13e-7318ccc0f7f2}, !- Name
  {ac16bd61-bc74-486d-9048-f2ba4384300f}, !- HVAC Component
  {3aa58d7d-22a7-4439-9ae0-ea2a302b67c0}; !- Port 1

OS:PortList,
  {757f8c52-781b-4cd2-b735-269719b1ba7b}, !- Handle
  {0dee5cce-01d6-45e5-b10e-125e6dc0a1fc}, !- Name
  {ac16bd61-bc74-486d-9048-f2ba4384300f}; !- HVAC Component

OS:Sizing:Zone,
  {4dfc999e-5b50-45d4-9ac0-d97fc99539a9}, !- Handle
  {ac16bd61-bc74-486d-9048-f2ba4384300f}, !- Zone or ZoneList Name
  SupplyAirTemperature,                   !- Zone Cooling Design Supply Air Temperature Input Method
  12.8,                                   !- Zone Cooling Design Supply Air Temperature {C}
  11.11,                                  !- Zone Cooling Design Supply Air Temperature Difference {deltaC}
  SupplyAirTemperature,                   !- Zone Heating Design Supply Air Temperature Input Method
  40,                                     !- Zone Heating Design Supply Air Temperature {C}
  11.11,                                  !- Zone Heating Design Supply Air Temperature Difference {deltaC}
  0.0085,                                 !- Zone Cooling Design Supply Air Humidity Ratio {kg-H2O/kg-air}
  0.008,                                  !- Zone Heating Design Supply Air Humidity Ratio {kg-H2O/kg-air}
  ,                                       !- Zone Heating Sizing Factor
  ,                                       !- Zone Cooling Sizing Factor
  DesignDay,                              !- Cooling Design Air Flow Method
  ,                                       !- Cooling Design Air Flow Rate {m3/s}
  ,                                       !- Cooling Minimum Air Flow per Zone Floor Area {m3/s-m2}
  ,                                       !- Cooling Minimum Air Flow {m3/s}
  ,                                       !- Cooling Minimum Air Flow Fraction
  DesignDay,                              !- Heating Design Air Flow Method
  ,                                       !- Heating Design Air Flow Rate {m3/s}
  ,                                       !- Heating Maximum Air Flow per Zone Floor Area {m3/s-m2}
  ,                                       !- Heating Maximum Air Flow {m3/s}
  ,                                       !- Heating Maximum Air Flow Fraction
  No,                                     !- Account for Dedicated Outdoor Air System
  NeutralSupplyAir,                       !- Dedicated Outdoor Air System Control Strategy
  autosize,                               !- Dedicated Outdoor Air Low Setpoint Temperature for Design {C}
  autosize;                               !- Dedicated Outdoor Air High Setpoint Temperature for Design {C}

OS:ZoneHVAC:EquipmentList,
  {e794d238-53f0-44a2-9ec2-0455095a6bb4}, !- Handle
  {c921598f-3360-4ca2-8588-756f8723bd69}, !- Name
  {ac16bd61-bc74-486d-9048-f2ba4384300f}, !- Thermal Zone
  ,                                       !- Load Distribution Scheme
  {167c75d6-1454-464c-90e9-755a686f42d2}, !- Zone Equipment 1
  1,                                      !- Zone Equipment Cooling Sequence 1
  1,                                      !- Zone Equipment Heating or No-Load Sequence 1
  ,                                       !- Zone Equipment Sequential Cooling Fraction Schedule Name 1
  ,                                       !- Zone Equipment Sequential Heating Fraction Schedule Name 1
  {77b8e696-e569-4f26-8b5e-2487be70388b}, !- Zone Equipment 2
  2,                                      !- Zone Equipment Cooling Sequence 2
  2,                                      !- Zone Equipment Heating or No-Load Sequence 2
  ,                                       !- Zone Equipment Sequential Cooling Fraction Schedule Name 2
  ;                                       !- Zone Equipment Sequential Heating Fraction Schedule Name 2

OS:ThermalZone,
  {c73442a5-8723-4e8c-954e-e6a2450201cb}, !- Handle
  2nd Floor - Utility,                    !- Name
  ,                                       !- Multiplier
  ,                                       !- Ceiling Height {m}
  ,                                       !- Volume {m3}
  ,                                       !- Floor Area {m2}
  ,                                       !- Zone Inside Convection Algorithm
  ,                                       !- Zone Outside Convection Algorithm
  ,                                       !- Zone Conditioning Equipment List Name
  {df9f37d3-dd79-4fe5-bf4e-0cfe588f518c}, !- Zone Air Inlet Port List
  {521308dd-9407-4346-9530-b337c3d59851}, !- Zone Air Exhaust Port List
  {53a0e51c-8652-48d9-872a-6f740c8752cd}, !- Zone Air Node Name
  {5425fc59-c583-4b6a-ba58-6ebd3a3c2a67}, !- Zone Return Air Port List