
OS:Version,
  {1f87e6b7-7846-49a3-bea5-d50d81985bf3}, !- Handle
  3.1.0;                                  !- Version Identifier

OS:Site,
  {26f1c638-f83f-4489-af38-fe8343611152}, !- Handle
  BROOMFIELD-JEFFCO,                      !- Name
  39.91,                                  !- Latitude {deg}
  -105.12,                                !- Longitude {deg}
  -7,                                     !- Time Zone {hr}
  1728,                                   !- Elevation {m}
  ;                                       !- Terrain

OS:YearDescription,
  {f7d9a70c-7857-45c2-ae30-6f4e5e45fa94}, !- Handle
  ,                                       !- Calendar Year
  Sunday,                                 !- Day of Week for Start Day
  ;                                       !- Is Leap Year

OS:ClimateZones,
  {11cc3edd-fe0a-449d-823b-07fba376eea0}, !- Handle
  ,                                       !- Climate Zone Institution Name 1
  ,                                       !- Climate Zone Document Name 1
  ,                                       !- Climate Zone Document Year 1
  5B,                                     !- Climate Zone Value 1
  CEC,                                    !- Climate Zone Institution Name 2
  California Climate Zone Descriptions,   !- Climate Zone Document Name 2
  1995,                                   !- Climate Zone Document Year 2
  1;                                      !- Climate Zone Value 2

OS:Building,
  {4a79776b-3947-4297-9b14-84e7b15c0b29}, !- Handle
  Building 1,                             !- Name
  ,                                       !- Building Sector Type
  ,                                       !- North Axis {deg}
  ,                                       !- Nominal Floor to Floor Height {m}
  ,                                       !- Space Type Name
  {38072bd5-8a21-4cf8-b0e0-45af05e1ed85}, !- Default Construction Set Name
  ;                                       !- Default Schedule Set Name

OS:Facility,
  {4a076730-fedd-4a78-966c-124b929505e0}; !- Handle

OS:SimulationControl,
  {bfc07a81-d344-459a-b385-637f224fa2cb}, !- Handle
  Yes,                                    !- Do Zone Sizing Calculation
  Yes,                                    !- Do System Sizing Calculation
  No,                                     !- Do Plant Sizing Calculation
  No,                                     !- Run Simulation for Sizing Periods
  Yes;                                    !- Run Simulation for Weather File Run Periods

OS:Sizing:Parameters,
  {6caff6eb-6210-4114-bb1f-1eefdedac410}, !- Handle
  1.25,                                   !- Heating Sizing Factor
  1.15;                                   !- Cooling Sizing Factor

OS:Timestep,
  {6367019d-61ac-4ea7-a821-1c963eca4f17}, !- Handle
  12;                                     !- Number of Timesteps per Hour

OS:ShadowCalculation,
  {c284baf7-c39f-4082-9a24-bbee4b42632e}, !- Handle
  PolygonClipping,                        !- Shading Calculation Method
  ,                                       !- Shading Calculation Update Frequency Method
  20,                                     !- Shading Calculation Update Frequency
  15000,                                  !- Maximum Figures in Shadow Overlap Calculations
  ,                                       !- Polygon Clipping Algorithm
  512,                                    !- Pixel Counting Resolution
  ,                                       !- Sky Diffuse Modeling Algorithm
  No,                                     !- Output External Shading Calculation Results
  No,                                     !- Disable Self-Shading Within Shading Zone Groups
  No;                                     !- Disable Self-Shading From Shading Zone Groups to Other Zones

OS:HeatBalanceAlgorithm,
  {e1dca9d4-051f-4e7f-84d9-d6f2c1eb2ec1}, !- Handle
  ConductionTransferFunction,             !- Algorithm
  200;                                    !- Surface Temperature Upper Limit {C}

OS:RunPeriod,
  {eacf581d-ddc1-40a9-992d-7c6036fc6626}, !- Handle
  Run Period 1,                           !- Name
  1,                                      !- Begin Month
  1,                                      !- Begin Day of Month
  12,                                     !- End Month
  31,                                     !- End Day of Month
  ,                                       !- Use Weather File Holidays and Special Days
  ,                                       !- Use Weather File Daylight Saving Period
  ,                                       !- Apply Weekend Holiday Rule
  ,                                       !- Use Weather File Rain Indicators
  ,                                       !- Use Weather File Snow Indicators
  ;                                       !- Number of Times Runperiod to be Repeated

OS:LifeCycleCost:Parameters,
  {08a98a82-0904-46e6-a588-036a832e9cf5}, !- Handle
  FEMP,                                   !- Analysis Type
  ,                                       !- Discounting Convention
  ,                                       !- Inflation Approach
  ,                                       !- Real Discount Rate
  ,                                       !- Nominal Discount Rate
  ,                                       !- Inflation
  ,                                       !- Base Date Month
  ,                                       !- Base Date Year
  ,                                       !- Service Date Month
  ,                                       !- Service Date Year
  ,                                       !- Length of Study Period in Years
  ,                                       !- Tax Rate
  ,                                       !- Depreciation Method
  Yes;                                    !- Use NIST Fuel Escalation Rates

OS:Rendering:Color,
  {44d2ea0d-154c-487e-9334-3393cc8dbdd5}, !- Handle
  Rendering Color 1,                      !- Name
  68,                                     !- Rendering Red Value
  170,                                    !- Rendering Green Value
  153,                                    !- Rendering Blue Value
  255;                                    !- Rendering Alpha Value

OS:BuildingStory,
  {79ebbe87-8be0-4b2d-9fa0-da3eb255c065}, !- Handle
  Basement,                               !- Name
  0,                                      !- Nominal Z Coordinate {m}
  2.4384,                                 !- Nominal Floor to Floor Height {m}
  ,                                       !- Default Construction Set Name
  ,                                       !- Default Schedule Set Name
  {cbad52e4-9c6b-456f-b961-4409045afdeb}, !- Group Rendering Name
  2.4384;                                 !- Nominal Floor to Ceiling Height {m}

OS:Rendering:Color,
  {cbad52e4-9c6b-456f-b961-4409045afdeb}, !- Handle
  Rendering Color 2,                      !- Name
  51,                                     !- Rendering Red Value
  34,                                     !- Rendering Green Value
  136,                                    !- Rendering Blue Value
  255;                                    !- Rendering Alpha Value

OS:Rendering:Color,
  {8681fcfa-c12a-44ed-91a8-6be36b922e70}, !- Handle
  Rendering Color 3,                      !- Name
  221,                                    !- Rendering Red Value
  204,                                    !- Rendering Green Value
  119,                                    !- Rendering Blue Value
  255;                                    !- Rendering Alpha Value

OS:Rendering:Color,
  {fdd10783-afdb-498b-bf96-d0589bed524f}, !- Handle
  Rendering Color 4,                      !- Name
  51,                                     !- Rendering Red Value
  34,                                     !- Rendering Green Value
  136,                                    !- Rendering Blue Value
  255;                                    !- Rendering Alpha Value

OS:Rendering:Color,
  {d5d7cc8f-3e33-45d3-a4bd-9d7aa9861963}, !- Handle
  Rendering Color 5,                      !- Name
  102,                                    !- Rendering Red Value
  17,                                     !- Rendering Green Value
  0,                                      !- Rendering Blue Value
  255;                                    !- Rendering Alpha Value

OS:Rendering:Color,
  {e70a2414-00ee-4957-991d-631aecc6fa02}, !- Handle
  Rendering Color 6,                      !- Name
  153,                                    !- Rendering Red Value
  153,                                    !- Rendering Green Value
  51,                                     !- Rendering Blue Value
  255;                                    !- Rendering Alpha Value

OS:Rendering:Color,
  {5a40611e-c3b8-45da-8636-7432bfe31ce1}, !- Handle
  Rendering Color 7,                      !- Name
  17,                                     !- Rendering Red Value
  119,                                    !- Rendering Green Value
  51,                                     !- Rendering Blue Value
  255;                                    !- Rendering Alpha Value

OS:Rendering:Color,
  {31acde5c-861b-4957-a642-f03b57b70303}, !- Handle
  Rendering Color 8,                      !- Name
  136,                                    !- Rendering Red Value
  204,                                    !- Rendering Green Value
  238,                                    !- Rendering Blue Value
  255;                                    !- Rendering Alpha Value

OS:Rendering:Color,
  {bb3ce3f6-d33b-4981-9843-56aa14f9fd0e}, !- Handle
  Rendering Color 9,                      !- Name
  136,                                    !- Rendering Red Value
  204,                                    !- Rendering Green Value
  238,                                    !- Rendering Blue Value
  255;                                    !- Rendering Alpha Value

OS:Rendering:Color,
  {bc9d4d98-b631-4dea-85cb-6a366d9651e9}, !- Handle
  Rendering Color 10,                     !- Name
  204,                                    !- Rendering Red Value
  102,                                    !- Rendering Green Value
  119,                                    !- Rendering Blue Value
  255;                                    !- Rendering Alpha Value

OS:Rendering:Color,
  {83bd7230-8daf-4966-a5dd-51c3faa339b8}, !- Handle
  Rendering Color 11,                     !- Name
  136,                                    !- Rendering Red Value
  34,                                     !- Rendering Green Value
  85,                                     !- Rendering Blue Value
  255;                                    !- Rendering Alpha Value

OS:Rendering:Color,
  {9aac3028-10be-4ef1-852c-7c893ab1e3e1}, !- Handle
  Rendering Color 12,                     !- Name
  102,                                    !- Rendering Red Value
  153,                                    !- Rendering Green Value
  204,                                    !- Rendering Blue Value
  255;                                    !- Rendering Alpha Value

OS:Rendering:Color,
  {e1423361-6f41-442c-8423-cf9510758421}, !- Handle
  Rendering Color 13,                     !- Name
  170,                                    !- Rendering Red Value
  68,                                     !- Rendering Green Value
  102,                                    !- Rendering Blue Value
  255;                                    !- Rendering Alpha Value

OS:Rendering:Color,
  {48ad24bf-8035-4b6b-9350-9e6e78e8520a}, !- Handle
  Rendering Color 14,                     !- Name
  51,                                     !- Rendering Red Value
  34,                                     !- Rendering Green Value
  136,                                    !- Rendering Blue Value
  255;                                    !- Rendering Alpha Value

OS:Rendering:Color,
  {64143baf-bfdf-4ec9-a850-873642d981d9}, !- Handle
  Rendering Color 15,                     !- Name
  170,                                    !- Rendering Red Value
  68,                                     !- Rendering Green Value
  153,                                    !- Rendering Blue Value
  255;                                    !- Rendering Alpha Value

OS:DefaultConstructionSet,
  {38072bd5-8a21-4cf8-b0e0-45af05e1ed85}, !- Handle
  189.1-2009 - CZ5 - Office,              !- Name
  {97695aeb-11c8-4586-bcd1-ee955b5c35c2}, !- Default Exterior Surface Constructions Name
  {2912f460-afe6-4266-a94a-6e1e6363292c}, !- Default Interior Surface Constructions Name
  {ecb4dc54-1b9d-4a86-9c3e-7cf0d5f17ba0}, !- Default Ground Contact Surface Constructions Name
  {fe0e1586-627d-4ee7-88fb-12edaead350a}, !- Default Exterior SubSurface Constructions Name
  {f6199280-d424-4c18-b399-cc3967ba2b83}, !- Default Interior SubSurface Constructions Name
  {e88cd788-f8e2-4dd8-99bb-d2031e4c86c9}, !- Interior Partition Construction Name
  ,                                       !- Space Shading Construction Name
  ,                                       !- Building Shading Construction Name
  ,                                       !- Site Shading Construction Name
  ;                                       !- Adiabatic Surface Construction Name

OS:DefaultSurfaceConstructions,
  {97695aeb-11c8-4586-bcd1-ee955b5c35c2}, !- Handle
  Default Surface Constructions 13,       !- Name
  {faacba36-ac03-4c37-9144-973d0822054f}, !- Floor Construction Name
  {5e477763-2264-4f2c-9596-cbdf3e04ec6f}, !- Wall Construction Name
  {b6f6fabb-f1d6-460a-99e7-879068507549}; !- Roof Ceiling Construction Name

OS:DefaultSurfaceConstructions,
  {2912f460-afe6-4266-a94a-6e1e6363292c}, !- Handle
  Default Surface Constructions 14,       !- Name
  {2d240379-5f8f-4a84-82bf-84178f5ead43}, !- Floor Construction Name
  {fe7a9d67-536c-4ea6-ae70-2aee2d2583ec}, !- Wall Construction Name
  {49e4d589-7496-4254-a058-c2867df2cebc}; !- Roof Ceiling Construction Name

OS:DefaultSurfaceConstructions,
  {ecb4dc54-1b9d-4a86-9c3e-7cf0d5f17ba0}, !- Handle
  Default Surface Constructions 15,       !- Name
  {faacba36-ac03-4c37-9144-973d0822054f}, !- Floor Construction Name
  {faacba36-ac03-4c37-9144-973d0822054f}, !- Wall Construction Name
  {faacba36-ac03-4c37-9144-973d0822054f}; !- Roof Ceiling Construction Name

OS:DefaultSubSurfaceConstructions,
  {fe0e1586-627d-4ee7-88fb-12edaead350a}, !- Handle
  Default Sub Surface Constructions 9,    !- Name
  {caf8fa6e-e49b-48a3-922d-b0f43ab9bc7a}, !- Fixed Window Construction Name
  {caf8fa6e-e49b-48a3-922d-b0f43ab9bc7a}, !- Operable Window Construction Name
  {4364d987-5e3d-42b4-8dc2-c8e5fddb9b80}, !- Door Construction Name
  ,                                       !- Glass Door Construction Name
  ,                                       !- Overhead Door Construction Name
  ,                                       !- Skylight Construction Name
  {811b0363-2789-4a4e-9193-08ddcf6db227}, !- Tubular Daylight Dome Construction Name
  {811b0363-2789-4a4e-9193-08ddcf6db227}; !- Tubular Daylight Diffuser Construction Name

OS:DefaultSubSurfaceConstructions,
  {f6199280-d424-4c18-b399-cc3967ba2b83}, !- Handle
  Default Sub Surface Constructions 10,   !- Name
  {811b0363-2789-4a4e-9193-08ddcf6db227}, !- Fixed Window Construction Name
  {811b0363-2789-4a4e-9193-08ddcf6db227}, !- Operable Window Construction Name
  {71ae2f21-cecd-4a45-a05f-56a5b52abd7b}, !- Door Construction Name
  ,                                       !- Glass Door Construction Name
  ,                                       !- Overhead Door Construction Name
  ,                                       !- Skylight Construction Name
  ,                                       !- Tubular Daylight Dome Construction Name
  ;                                       !- Tubular Daylight Diffuser Construction Name

OS:Construction,
  {e88cd788-f8e2-4dd8-99bb-d2031e4c86c9}, !- Handle
  Interior Partition,                     !- Name
  {baff908e-f870-40bb-85d5-3e76b0f5ed9f}, !- Surface Rendering Name
  {f38456c8-e04b-4a3d-bf81-064cc9fffce1}; !- Layer 1

OS:StandardsInformation:Construction,
  {ab1d4784-0980-4b7c-b50e-71ef129f33e1}, !- Handle
  {e88cd788-f8e2-4dd8-99bb-d2031e4c86c9}, !- Construction Name
  InteriorPartition,                      !- Intended Surface Type
  ,                                       !- Standards Construction Type
  ,                                       !- Perturbable Layer
  ,                                       !- Perturbable Layer Type
  ,                                       !- Other Perturbable Layer Type
  ;                                       !- Construction Standard

OS:Construction,
  {faacba36-ac03-4c37-9144-973d0822054f}, !- Handle
  ExtSlabCarpet 4in ClimateZone 1-8,      !- Name
  {ef3b3a28-92ef-4538-8852-391395231cff}, !- Surface Rendering Name
  {861f8d4c-0593-49a4-b266-1624ce4aa698}, !- Layer 1
  {99443e3f-fc8b-4923-a43b-197817e701e1}; !- Layer 2

OS:StandardsInformation:Construction,
  {e57df501-3515-493a-b817-d6a2e6436e28}, !- Handle
  {faacba36-ac03-4c37-9144-973d0822054f}, !- Construction Name
  ExteriorFloor,                          !- Intended Surface Type
  ,                                       !- Standards Construction Type
  ,                                       !- Perturbable Layer
  ,                                       !- Perturbable Layer Type
  ,                                       !- Other Perturbable Layer Type
  ;                                       !- Construction Standard

OS:Construction,
  {5e477763-2264-4f2c-9596-cbdf3e04ec6f}, !- Handle
  ASHRAE 189.1-2009 ExtWall Mass ClimateZone 5, !- Name
  {e1af7f3f-2eef-48db-b195-9c51bdbe4161}, !- Surface Rendering Name
  {e167aab9-533b-4c68-9fbf-4ed12b7d8845}, !- Layer 1
  {7c5fef6d-4723-46cd-a9ad-bdc7c99e6777}, !- Layer 2
  {fc3bdad9-7b1e-4c6f-9437-06baafb6234d}, !- Layer 3
  {cacd6072-8219-4f82-9386-a67e66b3462e}; !- Layer 4

OS:StandardsInformation:Construction,
  {cf7fdb62-4925-4f70-be86-eece75dd4c7c}, !- Handle
  {5e477763-2264-4f2c-9596-cbdf3e04ec6f}, !- Construction Name
  ExteriorWall,                           !- Intended Surface Type
  Mass,                                   !- Standards Construction Type
  ,                                       !- Perturbable Layer
  ,                                       !- Perturbable Layer Type
  ,                                       !- Other Perturbable Layer Type
  ASHRAE 189.1-2009;                      !- Construction Standard

OS:Construction,
  {b6f6fabb-f1d6-460a-99e7-879068507549}, !- Handle
  ASHRAE 189.1-2009 ExtRoof IEAD ClimateZone 2-5, !- Name
  {84217b6d-74e1-43e1-ba60-0fdf398e1f22}, !- Surface Rendering Name
  {d76e1cb9-7af2-4942-b01a-36d00a5b86ab}, !- Layer 1
  {c5337794-17f7-43f9-b626-75719d5ea2df}, !- Layer 2
  {bde3ca4b-74e8-4627-b127-e0e2928d6ded}; !- Layer 3

OS:StandardsInformation:Construction,
  {e580582a-19cf-4227-86f3-3fd5b69bc7ec}, !- Handle
  {b6f6fabb-f1d6-460a-99e7-879068507549}, !- Construction Name
  ExteriorRoof,                           !- Intended Surface Type
  IEAD,                                   !- Standards Construction Type
  ,                                       !- Perturbable Layer
  ,                                       !- Perturbable Layer Type
  ,                                       !- Other Perturbable Layer Type
  ASHRAE 189.1-2009;                      !- Construction Standard

OS:Construction,
  {2d240379-5f8f-4a84-82bf-84178f5ead43}, !- Handle
  Interior Floor,                         !- Name
  {fc84a349-406d-4323-875f-060e0ad3e11c}, !- Surface Rendering Name
  {40c87817-e8f5-40e4-a866-3630a6e6f8f4}, !- Layer 1
  {3a69ee74-8321-45f6-8971-91ea90da959a}, !- Layer 2
  {15bcf0f6-3248-48b4-8488-38e156102a9c}; !- Layer 3

OS:StandardsInformation:Construction,
  {3a99e215-1cc3-48e6-93b9-97c82ee98d06}, !- Handle
  {2d240379-5f8f-4a84-82bf-84178f5ead43}, !- Construction Name
  InteriorFloor,                          !- Intended Surface Type
  ,                                       !- Standards Construction Type
  ,                                       !- Perturbable Layer
  ,                                       !- Perturbable Layer Type
  ,                                       !- Other Perturbable Layer Type
  ;                                       !- Construction Standard

OS:Construction,
  {fe7a9d67-536c-4ea6-ae70-2aee2d2583ec}, !- Handle
  Interior Wall,                          !- Name
  {52989020-c843-4b5b-bf76-a27c2bca7453}, !- Surface Rendering Name
  {57912703-bf50-47e3-8649-1c6959bd680d}, !- Layer 1
  {3f41a15a-ee17-4f60-9329-a44887827adc}, !- Layer 2
  {57912703-bf50-47e3-8649-1c6959bd680d}; !- Layer 3

OS:StandardsInformation:Construction,
  {8fea14df-99c0-45d0-aef3-28c4ca1d92f7}, !- Handle
  {fe7a9d67-536c-4ea6-ae70-2aee2d2583ec}, !- Construction Name
  InteriorWall,                           !- Intended Surface Type
  ,                                       !- Standards Construction Type
  ,                                       !- Perturbable Layer
  ,                                       !- Perturbable Layer Type
  ,                                       !- Other Perturbable Layer Type
  ;                                       !- Construction Standard

OS:Construction,
  {49e4d589-7496-4254-a058-c2867df2cebc}, !- Handle
  Interior Ceiling,                       !- Name
  {320f9905-4b0c-4cbb-a805-c044f5a70c7c}, !- Surface Rendering Name
  {15bcf0f6-3248-48b4-8488-38e156102a9c}, !- Layer 1
  {3a69ee74-8321-45f6-8971-91ea90da959a}, !- Layer 2
  {40c87817-e8f5-40e4-a866-3630a6e6f8f4}; !- Layer 3

OS:StandardsInformation:Construction,
  {3d64fcb2-f0e2-4138-a40d-803bed8c3312}, !- Handle
  {49e4d589-7496-4254-a058-c2867df2cebc}, !- Construction Name
  InteriorCeiling,                        !- Intended Surface Type
  ,                                       !- Standards Construction Type
  ,                                       !- Perturbable Layer
  ,                                       !- Perturbable Layer Type
  ,                                       !- Other Perturbable Layer Type
  ;                                       !- Construction Standard

OS:Construction,
  {caf8fa6e-e49b-48a3-922d-b0f43ab9bc7a}, !- Handle
  ASHRAE 189.1-2009 ExtWindow ClimateZone 4-5, !- Name
  {bed331ab-2a02-450f-9ccd-2f2b8bfa289b}, !- Surface Rendering Name
  {2b4c07d8-9431-45e3-a362-d65c320fd463}; !- Layer 1

OS:StandardsInformation:Construction,
  {d0978a30-789c-42f7-b215-6bf88716f635}, !- Handle
  {caf8fa6e-e49b-48a3-922d-b0f43ab9bc7a}, !- Construction Name
  ExteriorWindow,                         !- Intended Surface Type
  ,                                       !- Standards Construction Type
  ,                                       !- Perturbable Layer
  ,                                       !- Perturbable Layer Type
  ,                                       !- Other Perturbable Layer Type
  ASHRAE 189.1-2009;                      !- Construction Standard

OS:Construction,
  {4364d987-5e3d-42b4-8dc2-c8e5fddb9b80}, !- Handle
  Exterior Door,                          !- Name
  {7bf8aa1a-1754-4d89-a8e9-264fca30863d}, !- Surface Rendering Name
  {4f4dcbf5-f6f4-465a-a141-024e1d21162d}, !- Layer 1
  {4c3aaaf8-3ebc-42b7-9bdf-40ff06a68b85}; !- Layer 2

OS:StandardsInformation:Construction,
  {084b09d8-78c4-4336-bfd2-b81da0f72914}, !- Handle
  {4364d987-5e3d-42b4-8dc2-c8e5fddb9b80}, !- Construction Name
  ExteriorDoor,                           !- Intended Surface Type
  ,                                       !- Standards Construction Type
  ,                                       !- Perturbable Layer
  ,                                       !- Perturbable Layer Type
  ,                                       !- Other Perturbable Layer Type
  ;                                       !- Construction Standard

OS:Construction,
  {811b0363-2789-4a4e-9193-08ddcf6db227}, !- Handle
  Interior Window,                        !- Name
  {8d687a76-3a55-4f7d-a707-49842db8ee39}, !- Surface Rendering Name
  {013fe05a-974a-46b9-9c2f-15a26673d10a}; !- Layer 1

OS:StandardsInformation:Construction,
  {5da5f1f7-187e-4b21-ab59-30bc85ffea68}, !- Handle
  {811b0363-2789-4a4e-9193-08ddcf6db227}, !- Construction Name
  InteriorWindow,                         !- Intended Surface Type
  ,                                       !- Standards Construction Type
  ,                                       !- Perturbable Layer
  ,                                       !- Perturbable Layer Type
  ,                                       !- Other Perturbable Layer Type
  ;                                       !- Construction Standard

OS:Construction,
  {71ae2f21-cecd-4a45-a05f-56a5b52abd7b}, !- Handle
  Interior Door,                          !- Name
  {e43ca8b3-d743-4f7d-ba49-0b831f3c1c66}, !- Surface Rendering Name
  {f38456c8-e04b-4a3d-bf81-064cc9fffce1}; !- Layer 1

OS:StandardsInformation:Construction,
  {7449bcd2-2697-43f6-8832-b971dc481e5a}, !- Handle
  {71ae2f21-cecd-4a45-a05f-56a5b52abd7b}, !- Construction Name
  InteriorDoor,                           !- Intended Surface Type
  ,                                       !- Standards Construction Type
  ,                                       !- Perturbable Layer
  ,                                       !- Perturbable Layer Type
  ,                                       !- Other Perturbable Layer Type
  ;                                       !- Construction Standard

OS:Rendering:Color,
  {baff908e-f870-40bb-85d5-3e76b0f5ed9f}, !- Handle
  Rendering Color 147,                    !- Name
  128,                                    !- Rendering Red Value
  128,                                    !- Rendering Green Value
  0;                                      !- Rendering Blue Value

OS:Material,
  {f38456c8-e04b-4a3d-bf81-064cc9fffce1}, !- Handle
  G05 25mm wood,                          !- Name
  MediumSmooth,                           !- Roughness
  0.0254,                                 !- Thickness {m}
  0.15,                                   !- Conductivity {W/m-K}
  608,                                    !- Density {kg/m3}
  1630,                                   !- Specific Heat {J/kg-K}
  0.9,                                    !- Thermal Absorptance
  0.5,                                    !- Solar Absorptance
  0.5;                                    !- Visible Absorptance

OS:StandardsInformation:Material,
  {8ba8d23f-054c-4a10-82b7-981de541ce80}, !- Handle
  {f38456c8-e04b-4a3d-bf81-064cc9fffce1}; !- Material Name

OS:Rendering:Color,
  {ef3b3a28-92ef-4538-8852-391395231cff}, !- Handle
  Rendering Color 146,                    !- Name
  255,                                    !- Rendering Red Value
  182,                                    !- Rendering Green Value
  193;                                    !- Rendering Blue Value

OS:Material,
  {861f8d4c-0593-49a4-b266-1624ce4aa698}, !- Handle
  MAT-CC05 4 HW CONCRETE,                 !- Name
  Rough,                                  !- Roughness
  0.1016,                                 !- Thickness {m}
  1.311,                                  !- Conductivity {W/m-K}
  2240,                                   !- Density {kg/m3}
  836.800000000001,                       !- Specific Heat {J/kg-K}
  0.9,                                    !- Thermal Absorptance
  0.85,                                   !- Solar Absorptance
  0.85;                                   !- Visible Absorptance

OS:StandardsInformation:Material,
  {8b76da5f-571f-419d-96c3-07903ac86ea7}, !- Handle
  {861f8d4c-0593-49a4-b266-1624ce4aa698}; !- Material Name

OS:Material:NoMass,
  {99443e3f-fc8b-4923-a43b-197817e701e1}, !- Handle
  CP02 CARPET PAD,                        !- Name
  Smooth,                                 !- Roughness
  0.1,                                    !- Thermal Resistance {m2-K/W}
  0.9,                                    !- Thermal Absorptance
  0.8,                                    !- Solar Absorptance
  0.8;                                    !- Visible Absorptance

OS:StandardsInformation:Material,
  {d875c5aa-aafc-4052-b59f-df4c989cf0b6}, !- Handle
  {99443e3f-fc8b-4923-a43b-197817e701e1}; !- Material Name

OS:Material,
  {e167aab9-533b-4c68-9fbf-4ed12b7d8845}, !- Handle
  1IN Stucco,                             !- Name
  Smooth,                                 !- Roughness
  0.0253,                                 !- Thickness {m}
  0.691799999999999,                      !- Conductivity {W/m-K}
  1858,                                   !- Density {kg/m3}
  836.999999999999,                       !- Specific Heat {J/kg-K}
  0.9,                                    !- Thermal Absorptance
  0.92,                                   !- Solar Absorptance
  0.92;                                   !- Visible Absorptance

OS:StandardsInformation:Material,
  {4cd3f524-bfcd-4615-afde-4782f61b8e97}, !- Handle
  {e167aab9-533b-4c68-9fbf-4ed12b7d8845}; !- Material Name

OS:Material,
  {7c5fef6d-4723-46cd-a9ad-bdc7c99e6777}, !- Handle
  8IN Concrete HW,                        !- Name
  MediumRough,                            !- Roughness
  0.2033,                                 !- Thickness {m}
  1.72959999999999,                       !- Conductivity {W/m-K}
  2242.99999999999,                       !- Density {kg/m3}
  836.999999999999,                       !- Specific Heat {J/kg-K}
  0.9,                                    !- Thermal Absorptance
  0.65,                                   !- Solar Absorptance
  0.65;                                   !- Visible Absorptance

OS:StandardsInformation:Material,
  {0e8e2d45-0813-481c-ae19-a95a9673cd4b}, !- Handle
  {7c5fef6d-4723-46cd-a9ad-bdc7c99e6777}; !- Material Name

OS:Material,
  {fc3bdad9-7b1e-4c6f-9437-06baafb6234d}, !- Handle
  Wall Insulation [40],                   !- Name
  MediumRough,                            !- Roughness
  0.0793999999999999,                     !- Thickness {m}
  0.0432,                                 !- Conductivity {W/m-K}
  91,                                     !- Density {kg/m3}